<?xml version="1.0" encoding="UTF-8"?>

<!-- generated on 2024-07-10 04:16:57.469130 by osmWebWizard.py UNKNOWN
<configuration>
    <allow-fringe.min-length value="1000.0"/>
    <fringe-factor value="5"/>
    <fringe-start-attributes value="departSpeed=&quot;max&quot;"/>
    <insertion-density value="12.0"/>
    <lanes value="True"/>
    <min-distance.fringe value="10.0"/>
    <min-distance value="300.0"/>
    <net-file value="/Users/yasser/2024-07-10-04-14-21/osm.net.xml.gz"/>
    <remove-loops value="True"/>
    <route-file value="/Users/yasser/2024-07-10-04-14-21/osm.passenger.rou.xml"/>
    <trip-attributes value="departLane=&quot;best&quot;"/>
    <output-trip-file value="/Users/yasser/2024-07-10-04-14-21/osm.passenger.trips.xml"/>
    <prefix value="veh"/>
    <validate value="True"/>
    <vehicle-class value="passenger"/>
    <via-edge-types value="highway.motorway,highway.motorway_link,highway.trunk_link,highway.primary_link,highway.secondary_link,highway.tertiary_link"/>
</configuration>
-->

<!-- generated on 2024-07-10 04:16:57 by Eclipse SUMO duarouter Version 1.18.0
<configuration xmlns:xsi="http://www.w3.org/2001/XMLSchema-instance" xsi:noNamespaceSchemaLocation="http://sumo.dlr.de/xsd/duarouterConfiguration.xsd">

    <input>
        <net-file value="/Users/yasser/2024-07-10-04-14-21/osm.net.xml.gz"/>
        <route-files value="/Users/yasser/2024-07-10-04-14-21/osm.passenger.trips.xml"/>
    </input>

    <output>
        <output-file value="/Users/yasser/2024-07-10-04-14-21/osm.passenger.trips.xml.tmp"/>
        <alternatives-output value="NUL"/>
        <write-trips value="true"/>
    </output>

    <processing>
        <remove-loops value="true"/>
    </processing>

    <time>
        <begin value="0.0"/>
        <end value="3600.0"/>
    </time>

    <report>
        <no-warnings value="true"/>
        <ignore-errors value="true"/>
        <no-step-log value="true"/>
    </report>

</configuration>
-->

<routes xmlns:xsi="http://www.w3.org/2001/XMLSchema-instance" xsi:noNamespaceSchemaLocation="http://sumo.dlr.de/xsd/routes_file.xsd">
    <vType id="veh_passenger" vClass="passenger"/>
    <trip id="veh0" type="veh_passenger" depart="0.00" departLane="best" from="31961833#0" to="-1300352325"/>
    <trip id="veh1" type="veh_passenger" depart="3.82" departLane="best" from="1003178504#0" to="1002042615#0"/>
    <trip id="veh2" type="veh_passenger" depart="7.65" departLane="best" from="58979836#0" to="-23897655#4"/>
    <trip id="veh3" type="veh_passenger" depart="11.47" departLane="best" departSpeed="max" from="-55668884" to="25991776#0"/>
    <trip id="veh4" type="veh_passenger" depart="15.29" departLane="best" departSpeed="max" from="-1183303174#2" to="-629487716"/>
    <trip id="veh5" type="veh_passenger" depart="19.11" departLane="best" departSpeed="max" from="33804566#0" to="28706862#0"/>
    <trip id="veh6" type="veh_passenger" depart="22.94" departLane="best" departSpeed="max" from="-55668884" to="318129574#0"/>
    <trip id="veh8" type="veh_passenger" depart="30.58" departLane="best" from="53137990#0" to="-41211487#0"/>
    <trip id="veh9" type="veh_passenger" depart="34.40" departLane="best" departSpeed="max" from="1300352325" to="-41211487#6"/>
    <trip id="veh11" type="veh_passenger" depart="42.05" departLane="best" departSpeed="max" from="-23360088" to="24892134"/>
    <trip id="veh12" type="veh_passenger" depart="45.87" departLane="best" from="542665948#0" to="318210197#0"/>
    <trip id="veh13" type="veh_passenger" depart="49.69" departLane="best" from="53137990#2" to="41453495#0"/>
    <trip id="veh15" type="veh_passenger" depart="57.34" departLane="best" from="17343012#0" to="30133975#2"/>
    <trip id="veh16" type="veh_passenger" depart="61.16" departLane="best" from="542662637" to="33265707#0"/>
    <trip id="veh17" type="veh_passenger" depart="64.98" departLane="best" from="542665951#0" to="317404237#0"/>
    <trip id="veh18" type="veh_passenger" depart="68.81" departLane="best" departSpeed="max" from="38267155" to="-160612048#3"/>
    <trip id="veh19" type="veh_passenger" depart="72.63" departLane="best" from="-610157555" to="1169947283#0"/>
    <trip id="veh20" type="veh_passenger" depart="76.45" departLane="best" departSpeed="max" from="-23359729#1" to="1003178512#0"/>
    <trip id="veh21" type="veh_passenger" depart="80.27" departLane="best" from="-23368384#2" to="1119168428#1"/>
    <trip id="veh22" type="veh_passenger" depart="84.10" departLane="best" from="23652159#0" to="17344178#2"/>
    <trip id="veh23" type="veh_passenger" depart="87.92" departLane="best" from="1002042616#0" to="671575656"/>
    <trip id="veh24" type="veh_passenger" depart="91.74" departLane="best" from="38263957#0" to="-130209285#2"/>
    <trip id="veh26" type="veh_passenger" depart="99.39" departLane="best" departSpeed="max" from="-37084647" to="220520556#0"/>
    <trip id="veh27" type="veh_passenger" depart="103.21" departLane="best" departSpeed="max" from="904155538" to="-35772495#14"/>
    <trip id="veh29" type="veh_passenger" depart="110.85" departLane="best" from="542662641#2" to="44499681#2"/>
    <trip id="veh30" type="veh_passenger" depart="114.68" departLane="best" from="629487714#0" to="-130095724#3"/>
    <trip id="veh31" type="veh_passenger" depart="118.50" departLane="best" from="1169947283#0" to="1084121777#0"/>
    <trip id="veh32" type="veh_passenger" depart="122.32" departLane="best" departSpeed="max" from="-53832621#3" to="761437568#0"/>
    <trip id="veh33" type="veh_passenger" depart="126.15" departLane="best" departSpeed="max" from="55751867" to="1183303174#2"/>
    <trip id="veh34" type="veh_passenger" depart="129.97" departLane="best" from="34474265#19" to="22876123#0"/>
    <trip id="veh35" type="veh_passenger" depart="133.79" departLane="best" from="62645713" to="-23368384#5"/>
    <trip id="veh36" type="veh_passenger" depart="137.61" departLane="best" from="1002042615#1" to="1056795859#0"/>
    <trip id="veh37" type="veh_passenger" depart="141.44" departLane="best" from="28094284#6" to="1084094676#0"/>
    <trip id="veh38" type="veh_passenger" depart="145.26" departLane="best" from="305952631" to="621781805"/>
    <trip id="veh39" type="veh_passenger" depart="149.08" departLane="best" from="-17407088#2" to="-953991794"/>
    <trip id="veh40" type="veh_passenger" depart="152.90" departLane="best" from="953991796" to="261793254"/>
    <trip id="veh41" type="veh_passenger" depart="156.73" departLane="best" from="23897718" to="34474265#20"/>
    <trip id="veh42" type="veh_passenger" depart="160.55" departLane="best" from="17344863" to="23332581#1"/>
    <trip id="veh43" type="veh_passenger" depart="164.37" departLane="best" from="22876052" to="220520556#0"/>
    <trip id="veh46" type="veh_passenger" depart="175.84" departLane="best" departSpeed="max" from="-1101220712#1" to="41418355"/>
    <trip id="veh47" type="veh_passenger" depart="179.66" departLane="best" from="1002042616#0" to="37084647"/>
    <trip id="veh48" type="veh_passenger" depart="183.48" departLane="best" from="-24892132#2" to="23359798#0"/>
    <trip id="veh49" type="veh_passenger" depart="187.31" departLane="best" from="23107420#0" to="8361796"/>
    <trip id="veh50" type="veh_passenger" depart="191.13" departLane="best" departSpeed="max" from="55751867" to="1084094676#0"/>
    <trip id="veh51" type="veh_passenger" depart="194.95" departLane="best" from="23897892#1" to="-53845268"/>
    <trip id="veh52" type="veh_passenger" depart="198.77" departLane="best" departSpeed="max" from="1149340567" to="35772494#6"/>
    <trip id="veh53" type="veh_passenger" depart="202.60" departLane="best" departSpeed="max" from="316255056#0" to="383673950#2"/>
    <trip id="veh54" type="veh_passenger" depart="206.42" departLane="best" from="428892806" to="28452052#0"/>
    <trip id="veh55" type="veh_passenger" depart="210.24" departLane="best" departSpeed="max" from="429356220#0" to="-1098037224#1"/>
    <trip id="veh56" type="veh_passenger" depart="214.06" departLane="best" from="-1003159244#0" to="1284516380"/>
    <trip id="veh57" type="veh_passenger" depart="217.89" departLane="best" from="-115728080#5" to="66682746#0"/>
    <trip id="veh58" type="veh_passenger" depart="221.71" departLane="best" departSpeed="max" from="55751867" to="542662641#0"/>
    <trip id="veh59" type="veh_passenger" depart="225.53" departLane="best" from="1164901573" to="-23029041#2"/>
    <trip id="veh60" type="veh_passenger" depart="229.35" departLane="best" departSpeed="max" from="55751867" to="8325111#0"/>
    <trip id="veh61" type="veh_passenger" depart="233.18" departLane="best" departSpeed="max" from="-232839762" to="444635743#1"/>
    <trip id="veh62" type="veh_passenger" depart="237.00" departLane="best" from="428892807#0" to="-30134195"/>
    <trip id="veh63" type="veh_passenger" depart="240.82" departLane="best" from="23360082#0" to="28812424"/>
    <trip id="veh64" type="veh_passenger" depart="244.64" departLane="best" from="1002042615#1" to="57678740"/>
    <trip id="veh65" type="veh_passenger" depart="248.47" departLane="best" from="22329472#1" to="-904155538"/>
    <trip id="veh66" type="veh_passenger" depart="252.29" departLane="best" departSpeed="max" from="27508132" to="41453495#0"/>
    <trip id="veh67" type="veh_passenger" depart="256.11" departLane="best" departSpeed="max" from="-44499681#7" to="1183303174#1"/>
    <trip id="veh69" type="veh_passenger" depart="263.76" departLane="best" from="22964784#0" to="27296262#1"/>
    <trip id="veh70" type="veh_passenger" depart="267.58" departLane="best" departSpeed="max" from="-261793254" to="1002042615#1"/>
    <trip id="veh71" type="veh_passenger" depart="271.40" departLane="best" from="1202083398" to="318129573"/>
    <trip id="veh72" type="veh_passenger" depart="275.23" departLane="best" from="-629487715" to="27036596#2"/>
    <trip id="veh73" type="veh_passenger" depart="279.05" departLane="best" departSpeed="max" from="-232839762" to="34474265#21"/>
    <trip id="veh74" type="veh_passenger" depart="282.87" departLane="best" from="629487714#0" to="62645713"/>
    <trip id="veh75" type="veh_passenger" depart="286.69" departLane="best" from="542665954#0" to="-23359763#0"/>
    <trip id="veh77" type="veh_passenger" depart="294.34" departLane="best" from="-554332069#0" to="-33804566#1"/>
    <trip id="veh78" type="veh_passenger" depart="298.16" departLane="best" from="739626184#0" to="30850291#0"/>
    <trip id="veh79" type="veh_passenger" depart="301.98" departLane="best" from="-23360007#3" to="46848294#2"/>
    <trip id="veh80" type="veh_passenger" depart="305.81" departLane="best" from="23360162#2" to="23359729#0"/>
    <trip id="veh81" type="veh_passenger" depart="309.63" departLane="best" from="543048020#0" to="-23652273#5"/>
    <trip id="veh82" type="veh_passenger" depart="313.45" departLane="best" from="41222345#1" to="38237485"/>
    <trip id="veh83" type="veh_passenger" depart="317.27" departLane="best" departSpeed="max" from="90042841#0" to="-26284191"/>
    <trip id="veh84" type="veh_passenger" depart="321.10" departLane="best" departSpeed="max" from="216862003#0" to="-130659485#5"/>
    <trip id="veh85" type="veh_passenger" depart="324.92" departLane="best" from="543048020#0" to="1056795859#0"/>
    <trip id="veh86" type="veh_passenger" depart="328.74" departLane="best" from="-41215071#2" to="23360088"/>
    <trip id="veh87" type="veh_passenger" depart="332.56" departLane="best" from="222427536#0" to="1119168428#1"/>
    <trip id="veh88" type="veh_passenger" depart="336.39" departLane="best" departSpeed="max" from="-904155539" to="653939080#2"/>
    <trip id="veh89" type="veh_passenger" depart="340.21" departLane="best" departSpeed="max" from="23029041#0" to="-554332069#1"/>
    <trip id="veh90" type="veh_passenger" depart="344.03" departLane="best" departSpeed="max" from="27774093#0" to="-17242225"/>
    <trip id="veh91" type="veh_passenger" depart="347.85" departLane="best" from="9725285#3" to="542662641#2"/>
    <trip id="veh93" type="veh_passenger" depart="355.50" departLane="best" from="23652160#0" to="-93851926#1"/>
    <trip id="veh94" type="veh_passenger" depart="359.32" departLane="best" departSpeed="max" from="216862003#0" to="-23029042#4"/>
    <trip id="veh95" type="veh_passenger" depart="363.14" departLane="best" from="37519800#0" to="904155539"/>
    <trip id="veh96" type="veh_passenger" depart="366.97" departLane="best" from="1002042615#1" to="46848294#2"/>
    <trip id="veh97" type="veh_passenger" depart="370.79" departLane="best" from="1002042615#1" to="23359655"/>
    <trip id="veh102" type="veh_passenger" depart="389.90" departLane="best" departSpeed="max" from="-153955571#6" to="317404237#0"/>
    <trip id="veh103" type="veh_passenger" depart="393.73" departLane="best" from="23897989#1" to="542665954#0"/>
    <trip id="veh105" type="veh_passenger" depart="401.37" departLane="best" departSpeed="max" from="-23359729#1" to="-55482885"/>
    <trip id="veh107" type="veh_passenger" depart="409.02" departLane="best" from="58979808" to="1056795859#0"/>
    <trip id="veh108" type="veh_passenger" depart="412.84" departLane="best" from="316255055#0" to="335464647#0"/>
    <trip id="veh109" type="veh_passenger" depart="416.66" departLane="best" departSpeed="max" from="222427533" to="317404237#0"/>
    <trip id="veh110" type="veh_passenger" depart="420.48" departLane="best" from="25191475#0" to="671575656"/>
    <trip id="veh111" type="veh_passenger" depart="424.31" departLane="best" from="-476137153#6" to="428892807#1"/>
    <trip id="veh113" type="veh_passenger" depart="431.95" departLane="best" departSpeed="max" from="37519795#0" to="1170944965"/>
    <trip id="veh114" type="veh_passenger" depart="435.77" departLane="best" from="1170731255" to="22964784#0"/>
    <trip id="veh115" type="veh_passenger" depart="439.60" departLane="best" from="-23332581#0" to="23368384#3"/>
    <trip id="veh116" type="veh_passenger" depart="443.42" departLane="best" from="953991796" to="970313522#2"/>
    <trip id="veh117" type="veh_passenger" depart="447.24" departLane="best" from="-23359655" to="-93851926#1"/>
    <trip id="veh118" type="veh_passenger" depart="451.06" departLane="best" from="1002042615#1" to="671575656"/>
    <trip id="veh119" type="veh_passenger" depart="454.89" departLane="best" from="56926851#0" to="58979808"/>
    <trip id="veh120" type="veh_passenger" depart="458.71" departLane="best" from="153950038#3" to="-41215071#4"/>
    <trip id="veh121" type="veh_passenger" depart="462.53" departLane="best" from="542662640#0" to="542665953"/>
    <trip id="veh122" type="veh_passenger" depart="466.35" departLane="best" departSpeed="max" from="316255056#0" to="904155539"/>
    <trip id="veh123" type="veh_passenger" depart="470.18" departLane="best" from="34474265#11" to="-1098029905"/>
    <trip id="veh124" type="veh_passenger" depart="474.00" departLane="best" from="53839706" to="1170944965"/>
    <trip id="veh125" type="veh_passenger" depart="477.82" departLane="best" from="35772494#6" to="733889270"/>
    <trip id="veh127" type="veh_passenger" depart="485.47" departLane="best" from="-23897655#4" to="30133975#5"/>
    <trip id="veh128" type="veh_passenger" depart="489.29" departLane="best" from="1003178503#0" to="318210201#0"/>
    <trip id="veh130" type="veh_passenger" depart="496.93" departLane="best" from="542664288" to="-24892132#0"/>
    <trip id="veh131" type="veh_passenger" depart="500.76" departLane="best" from="543048020#0" to="1119168428#1"/>
    <trip id="veh132" type="veh_passenger" depart="504.58" departLane="best" departSpeed="max" from="-10621706#5" to="44499516#0"/>
    <trip id="veh133" type="veh_passenger" depart="508.40" departLane="best" from="31956209" to="1084094676#0"/>
    <trip id="veh134" type="veh_passenger" depart="512.23" departLane="best" from="41418357#0" to="30133975#2"/>
    <trip id="veh135" type="veh_passenger" depart="516.05" departLane="best" from="22736117#1" to="-1108603980"/>
    <trip id="veh136" type="veh_passenger" depart="519.87" departLane="best" departSpeed="max" from="-23359713#3" to="58979836#0"/>
    <trip id="veh137" type="veh_passenger" depart="523.69" departLane="best" from="621781787" to="28706862#0"/>
    <trip id="veh138" type="veh_passenger" depart="527.52" departLane="best" from="542662640#0" to="317404237#0"/>
    <trip id="veh139" type="veh_passenger" depart="531.34" departLane="best" from="30134195" to="30134026#2"/>
    <trip id="veh140" type="veh_passenger" depart="535.16" departLane="best" from="-1164901574" to="621781808"/>
    <trip id="veh142" type="veh_passenger" depart="542.81" departLane="best" from="59009855#0" to="-904155538"/>
    <trip id="veh143" type="veh_passenger" depart="546.63" departLane="best" departSpeed="max" from="429356220#0" to="58979836#0"/>
    <trip id="veh144" type="veh_passenger" depart="550.45" departLane="best" departSpeed="max" from="216862003#0" to="34239931"/>
    <trip id="veh146" type="veh_passenger" depart="558.10" departLane="best" departSpeed="max" from="53353063#0" to="58979808"/>
    <trip id="veh147" type="veh_passenger" depart="561.92" departLane="best" from="-1183303174#1" to="418380493#2"/>
    <trip id="veh148" type="veh_passenger" depart="565.74" departLane="best" from="1170948706" to="66682764#0"/>
    <trip id="veh149" type="veh_passenger" depart="569.56" departLane="best" from="490735066" to="55482894#0"/>
    <trip id="veh150" type="veh_passenger" depart="573.39" departLane="best" departSpeed="max" from="53353063#0" to="1084121777#0"/>
    <trip id="veh151" type="veh_passenger" depart="577.21" departLane="best" from="28706862#1" to="-27508132"/>
    <trip id="veh152" type="veh_passenger" depart="581.03" departLane="best" departSpeed="max" from="55751867" to="543048020#2"/>
    <trip id="veh153" type="veh_passenger" depart="584.85" departLane="best" departSpeed="max" from="-55751897" to="54225047#0"/>
    <trip id="veh154" type="veh_passenger" depart="588.68" departLane="best" from="232940458#0" to="1170948705"/>
    <trip id="veh156" type="veh_passenger" depart="596.32" departLane="best" from="-1183303174#0" to="-58986954"/>
    <trip id="veh157" type="veh_passenger" depart="600.14" departLane="best" from="1170948705" to="55751866#0"/>
    <trip id="veh160" type="veh_passenger" depart="611.61" departLane="best" departSpeed="max" from="90042841#0" to="28094284#0"/>
    <trip id="veh164" type="veh_passenger" depart="626.90" departLane="best" from="-23897655#6" to="23359798#0"/>
    <trip id="veh165" type="veh_passenger" depart="630.73" departLane="best" from="41222345#1" to="1183303174#2"/>
    <trip id="veh166" type="veh_passenger" depart="634.55" departLane="best" departSpeed="max" from="316255056#0" to="261793254"/>
    <trip id="veh167" type="veh_passenger" depart="638.37" departLane="best" from="41222343#0" to="316255055#0"/>
    <trip id="veh168" type="veh_passenger" depart="642.19" departLane="best" from="-1056795857" to="8325127#0"/>
    <trip id="veh169" type="veh_passenger" depart="646.02" departLane="best" departSpeed="max" from="27508132" to="41418355"/>
    <trip id="veh170" type="veh_passenger" depart="649.84" departLane="best" from="41418357#0" to="38237485"/>
    <trip id="veh171" type="veh_passenger" depart="653.66" departLane="best" from="141103985#1" to="-23359763#0"/>
    <trip id="veh172" type="veh_passenger" depart="657.48" departLane="best" from="35772495#0" to="1284516381"/>
    <trip id="veh173" type="veh_passenger" depart="661.31" departLane="best" from="1169947283#0" to="542665952#0"/>
    <trip id="veh174" type="veh_passenger" depart="665.13" departLane="best" from="-41211487#6" to="1170944965"/>
    <trip id="veh176" type="veh_passenger" depart="672.77" departLane="best" departSpeed="max" from="216862003#0" to="1170889231"/>
    <trip id="veh177" type="veh_passenger" depart="676.60" departLane="best" departSpeed="max" from="-27296270#5" to="1003159244#2"/>
    <trip id="veh179" type="veh_passenger" depart="684.24" departLane="best" departSpeed="max" from="1149340567" to="28812281#0"/>
    <trip id="veh180" type="veh_passenger" depart="688.06" departLane="best" from="-1003159244#0" to="1169137597#0"/>
    <trip id="veh181" type="veh_passenger" depart="691.89" departLane="best" from="22876052" to="317404237#0"/>
    <trip id="veh182" type="veh_passenger" depart="695.71" departLane="best" from="34474265#17" to="23652160#0"/>
    <trip id="veh183" type="veh_passenger" depart="699.53" departLane="best" departSpeed="max" from="23029041#0" to="-93851926#1"/>
    <trip id="veh184" type="veh_passenger" depart="703.35" departLane="best" from="23360007#4" to="621781808"/>
    <trip id="veh186" type="veh_passenger" depart="711.00" departLane="best" from="-23359942#1" to="27296249#0"/>
    <trip id="veh187" type="veh_passenger" depart="714.82" departLane="best" departSpeed="max" from="37519795#0" to="1002042615#1"/>
    <trip id="veh188" type="veh_passenger" depart="718.64" departLane="best" departSpeed="max" from="-44499681#7" to="-1300352325"/>
    <trip id="veh189" type="veh_passenger" depart="722.47" departLane="best" departSpeed="max" from="-828798885" to="23897718"/>
    <trip id="veh190" type="veh_passenger" depart="726.29" departLane="best" from="41418357#0" to="-23359782"/>
    <trip id="veh191" type="veh_passenger" depart="730.11" departLane="best" departSpeed="max" from="222427533" to="34474265#21"/>
    <trip id="veh192" type="veh_passenger" depart="733.93" departLane="best" departSpeed="max" from="-418380493#2" to="41211484#1"/>
    <trip id="veh193" type="veh_passenger" depart="737.76" departLane="best" from="-23897655#5" to="1056795859#0"/>
    <trip id="veh194" type="veh_passenger" depart="741.58" departLane="best" from="34474265#19" to="-1098029905"/>
    <trip id="veh195" type="veh_passenger" depart="745.40" departLane="best" from="41453495#4" to="44499515#5"/>
    <trip id="veh196" type="veh_passenger" depart="749.23" departLane="best" from="-23897655#3" to="23359713#3"/>
    <trip id="veh198" type="veh_passenger" depart="756.87" departLane="best" from="25171282#0" to="-17242225"/>
    <trip id="veh199" type="veh_passenger" depart="760.69" departLane="best" departSpeed="max" from="-904155539" to="542665952#0"/>
    <trip id="veh200" type="veh_passenger" depart="764.52" departLane="best" from="23107420#2" to="53137991#0"/>
    <trip id="veh201" type="veh_passenger" depart="768.34" departLane="best" departSpeed="max" from="37519795#0" to="930410027#0"/>
    <trip id="veh202" type="veh_passenger" depart="772.16" departLane="best" from="316255055#0" to="8327416#0"/>
    <trip id="veh203" type="veh_passenger" depart="775.98" departLane="best" from="58979808" to="41311467#0"/>
    <trip id="veh204" type="veh_passenger" depart="779.81" departLane="best" from="41211487#1" to="25991776#0"/>
    <trip id="veh205" type="veh_passenger" depart="783.63" departLane="best" from="59009855#0" to="428892807#0"/>
    <trip id="veh206" type="veh_passenger" depart="787.45" departLane="best" from="23360056#5" to="44499515#0"/>
    <trip id="veh207" type="veh_passenger" depart="791.27" departLane="best" departSpeed="max" from="-828798885" to="35772494#6"/>
    <trip id="veh208" type="veh_passenger" depart="795.10" departLane="best" from="428892807#0" to="27296270#0"/>
    <trip id="veh209" type="veh_passenger" depart="798.92" departLane="best" from="318210196#0" to="1101220712#0"/>
    <trip id="veh210" type="veh_passenger" depart="802.74" departLane="best" departSpeed="max" from="-23359713#3" to="1169137597#0"/>
    <trip id="veh211" type="veh_passenger" depart="806.56" departLane="best" from="-1003159244#2" to="1228016860"/>
    <trip id="veh213" type="veh_passenger" depart="814.21" departLane="best" from="-685270734" to="41211484#1"/>
    <trip id="veh214" type="veh_passenger" depart="818.03" departLane="best" departSpeed="max" from="38267155" to="-230415530#1"/>
    <trip id="veh215" type="veh_passenger" depart="821.85" departLane="best" departSpeed="max" from="216862003#0" to="286763156"/>
    <trip id="veh217" type="veh_passenger" depart="829.50" departLane="best" from="222427536#0" to="62645713"/>
    <trip id="veh218" type="veh_passenger" depart="833.32" departLane="best" from="305952631" to="41211484#1"/>
    <trip id="veh220" type="veh_passenger" depart="840.97" departLane="best" from="17343012#0" to="-1098029905"/>
    <trip id="veh221" type="veh_passenger" depart="844.79" departLane="best" from="22736117#1" to="22964784#0"/>
    <trip id="veh222" type="veh_passenger" depart="848.61" departLane="best" from="542665951#0" to="8361796"/>
    <trip id="veh223" type="veh_passenger" depart="852.43" departLane="best" departSpeed="max" from="222427533" to="428892807#1"/>
    <trip id="veh224" type="veh_passenger" depart="856.26" departLane="best" departSpeed="max" from="27774093#0" to="318210197#0"/>
    <trip id="veh225" type="veh_passenger" depart="860.08" departLane="best" departSpeed="max" from="-55668884" to="-953991794"/>
    <trip id="veh226" type="veh_passenger" depart="863.90" departLane="best" from="22964671#0" to="-1300352328"/>
    <trip id="veh227" type="veh_passenger" depart="867.72" departLane="best" from="-1193885191" to="38237485"/>
    <trip id="veh228" type="veh_passenger" depart="871.55" departLane="best" departSpeed="max" from="216862003#0" to="-467577573"/>
    <trip id="veh229" type="veh_passenger" depart="875.37" departLane="best" from="318129575#0" to="-1300352328"/>
    <trip id="veh230" type="veh_passenger" depart="879.19" departLane="best" from="17344863" to="30644959#0"/>
    <trip id="veh231" type="veh_passenger" depart="883.02" departLane="best" departSpeed="max" from="-1183303174#2" to="37084647"/>
    <trip id="veh232" type="veh_passenger" depart="886.84" departLane="best" from="-28094284#4" to="318210203#0"/>
    <trip id="veh233" type="veh_passenger" depart="890.66" departLane="best" from="-130095725#1" to="220520556#0"/>
    <trip id="veh234" type="veh_passenger" depart="894.48" departLane="best" departSpeed="max" from="-53832621#3" to="1284516380"/>
    <trip id="veh235" type="veh_passenger" depart="898.31" departLane="best" from="428892806" to="220520556#0"/>
    <trip id="veh236" type="veh_passenger" depart="902.13" departLane="best" from="41453495#4" to="542662641#0"/>
    <trip id="veh237" type="veh_passenger" depart="905.95" departLane="best" departSpeed="max" from="-904155539" to="-23368384#5"/>
    <trip id="veh238" type="veh_passenger" depart="909.77" departLane="best" from="-115728080#5" to="28452052#0"/>
    <trip id="veh239" type="veh_passenger" depart="913.60" departLane="best" from="9725285#3" to="165898777#0"/>
    <trip id="veh240" type="veh_passenger" depart="917.42" departLane="best" departSpeed="max" from="33804566#0" to="46848294#0"/>
    <trip id="veh241" type="veh_passenger" depart="921.24" departLane="best" departSpeed="max" from="33804566#0" to="22964784#0"/>
    <trip id="veh242" type="veh_passenger" depart="925.06" departLane="best" from="8325127#0" to="-629487716"/>
    <trip id="veh243" type="veh_passenger" depart="928.89" departLane="best" from="-1164901574" to="383673950#2"/>
    <trip id="veh244" type="veh_passenger" depart="932.71" departLane="best" departSpeed="max" from="-27296270#5" to="38237485"/>
    <trip id="veh245" type="veh_passenger" depart="936.53" departLane="best" from="286763156" to="-953991794"/>
    <trip id="veh246" type="veh_passenger" depart="940.35" departLane="best" departSpeed="max" from="378887012#0" to="44499515#0"/>
    <trip id="veh247" type="veh_passenger" depart="944.18" departLane="best" departSpeed="max" from="-37262677#6" to="318210203#0"/>
    <trip id="veh248" type="veh_passenger" depart="948.00" departLane="best" from="41453494#0" to="-27774100#4"/>
    <trip id="veh250" type="veh_passenger" depart="955.64" departLane="best" from="-23897655#5" to="-1300352325"/>
    <trip id="veh252" type="veh_passenger" depart="963.29" departLane="best" from="17345782#0" to="-23360007#3"/>
    <trip id="veh253" type="veh_passenger" depart="967.11" departLane="best" from="37519804#2" to="34474265#20"/>
    <trip id="veh254" type="veh_passenger" depart="970.93" departLane="best" from="23368384#3" to="44499516#0"/>
    <trip id="veh255" type="veh_passenger" depart="974.76" departLane="best" from="542665949#0" to="41418355"/>
    <trip id="veh256" type="veh_passenger" depart="978.58" departLane="best" departSpeed="max" from="-261793254" to="904155539"/>
    <trip id="veh257" type="veh_passenger" depart="982.40" departLane="best" departSpeed="max" from="429356220#0" to="-153955574"/>
    <trip id="veh258" type="veh_passenger" depart="986.22" departLane="best" departSpeed="max" from="24892132#0" to="-141103985#1"/>
    <trip id="veh260" type="veh_passenger" depart="993.87" departLane="best" from="23652159#0" to="542662640#0"/>
    <trip id="veh261" type="veh_passenger" depart="997.69" departLane="best" departSpeed="max" from="38267155" to="23359798#1"/>
    <trip id="veh263" type="veh_passenger" depart="1005.34" departLane="best" from="1002042617#0" to="53137991#2"/>
    <trip id="veh264" type="veh_passenger" depart="1009.16" departLane="best" departSpeed="max" from="27508132" to="23897892#1"/>
    <trip id="veh265" type="veh_passenger" depart="1012.98" departLane="best" from="22964671#0" to="41453495#4"/>
    <trip id="veh266" type="veh_passenger" depart="1016.81" departLane="best" from="1002042616#0" to="47625583#0"/>
    <trip id="veh267" type="veh_passenger" depart="1020.63" departLane="best" from="542662637" to="-23897655#4"/>
    <trip id="veh269" type="veh_passenger" depart="1028.27" departLane="best" departSpeed="max" from="23359763#0" to="31961833#0"/>
    <trip id="veh270" type="veh_passenger" depart="1032.10" departLane="best" from="17343012#0" to="-1300352328"/>
    <trip id="veh271" type="veh_passenger" depart="1035.92" departLane="best" from="542665950#0" to="-55450526"/>