<?xml version="1.0" encoding="UTF-8"?>

<!-- generated on 2024-07-10 04:16:55 by Eclipse SUMO netconvert Version 1.18.0
<configuration xmlns:xsi="http://www.w3.org/2001/XMLSchema-instance" xsi:noNamespaceSchemaLocation="http://sumo.dlr.de/xsd/netconvertConfiguration.xsd">

    <input>
        <type-files value="${SUMO_HOME}/data/typemap/osmNetconvert.typ.xml"/>
        <osm-files value="osm_bbox.osm.xml.gz"/>
    </input>

    <output>
        <output-file value="osm.net.xml.gz"/>
        <output.street-names value="true"/>
        <output.original-names value="true"/>
    </output>

    <projection>
        <proj.utm value="true"/>
    </projection>

    <processing>
        <geometry.remove value="true"/>
        <roundabouts.guess value="true"/>
    </processing>

    <tls_building>
        <tls.discard-simple value="true"/>
        <tls.join value="true"/>
        <tls.guess-signals value="true"/>
        <tls.default-type value="actuated"/>
    </tls_building>

    <ramp_guessing>
        <ramps.guess value="true"/>
    </ramp_guessing>

    <edge_removal>
        <keep-edges.by-vclass value="passenger"/>
    </edge_removal>

    <junctions>
        <junctions.join value="true"/>
        <junctions.corner-detail value="5"/>
    </junctions>

</configuration>
-->

<net version="1.16" junctionCornerDetail="5" limitTurnSpeed="5.50" xmlns:xsi="http://www.w3.org/2001/XMLSchema-instance" xsi:noNamespaceSchemaLocation="http://sumo.dlr.de/xsd/net_file.xsd">

    <location netOffset="-391868.94,-5707459.31" convBoundary="0.00,0.00,3229.60,1779.75" origBoundary="7.441829,51.507914,7.488402,51.523965" projParameter="+proj=utm +zone=32 +ellps=WGS84 +datum=WGS84 +units=m +no_defs"/>

    <type id="highway.living_street" priority="2" numLanes="1" speed="2.78" disallow="tram rail_urban rail rail_electric rail_fast ship" oneway="0"/>
    <type id="highway.primary" priority="12" numLanes="2" speed="27.78" disallow="tram rail_urban rail rail_electric rail_fast ship" oneway="0"/>
    <type id="highway.primary_link" priority="7" numLanes="1" speed="22.22" disallow="tram rail_urban rail rail_electric rail_fast ship" oneway="0"/>
    <type id="highway.residential" priority="3" numLanes="1" speed="13.89" disallow="tram rail_urban rail rail_electric rail_fast ship" oneway="0"/>
    <type id="highway.secondary" priority="11" numLanes="1" speed="27.78" disallow="tram rail_urban rail rail_electric rail_fast ship" oneway="0"/>
    <type id="highway.secondary_link" priority="6" numLanes="1" speed="22.22" disallow="tram rail_urban rail rail_electric rail_fast ship" oneway="0"/>
    <type id="highway.tertiary" priority="10" numLanes="1" speed="22.22" disallow="tram rail_urban rail rail_electric rail_fast ship" oneway="0"/>
    <type id="highway.unclassified" priority="4" numLanes="1" speed="13.89" disallow="tram rail_urban rail rail_electric rail_fast ship" oneway="0"/>

    <edge id=":10136522143_0" function="internal">
        <lane id=":10136522143_0_0" index="0" disallow="pedestrian tram rail_urban rail rail_electric rail_fast ship" speed="13.89" length="8.16" shape="2184.34,642.41 2186.55,641.47 2187.93,640.49 2189.32,639.53 2191.55,638.66"/>
        <lane id=":10136522143_0_1" index="1" disallow="pedestrian tram rail_urban rail rail_electric rail_fast ship" speed="13.89" length="8.16" shape="2184.34,642.41 2186.68,641.96 2188.35,642.03 2190.04,642.13 2192.40,641.74"/>
    </edge>
    <edge id=":10243910767_0" function="internal">
        <lane id=":10243910767_0_0" index="0" disallow="tram rail_urban rail rail_electric rail_fast ship" speed="8.33" length="8.52" shape="1831.55,236.85 1830.82,234.52 1829.16,233.31 1827.42,232.11 1826.46,229.79"/>
        <lane id=":10243910767_0_1" index="1" disallow="tram rail_urban rail rail_electric rail_fast ship" speed="8.33" length="8.52" shape="1831.55,236.85 1831.31,234.63 1830.74,233.17 1830.09,231.71 1829.64,229.50"/>
        <lane id=":10243910767_0_2" index="2" disallow="tram rail_urban rail rail_electric rail_fast ship" speed="8.33" length="8.52" shape="1831.55,236.85 1831.81,234.56 1832.33,233.02 1832.78,231.48 1832.83,229.21"/>
        <lane id=":10243910767_0_3" index="3" disallow="tram rail_urban rail rail_electric rail_fast ship" speed="8.33" length="8.52" shape="1831.55,236.85 1832.32,234.32 1833.95,232.87 1835.50,231.43 1836.02,228.92"/>
    </edge>
    <edge id=":10692297990_0" function="internal">
        <lane id=":10692297990_0_0" index="0" disallow="tram rail_urban rail rail_electric rail_fast ship" speed="3.65" length="4.67" shape="2041.90,344.29 2043.33,344.11 2044.16,344.45 2044.38,345.32 2043.99,346.71"/>
    </edge>
    <edge id=":10739350673_0" function="internal">
        <lane id=":10739350673_0_0" index="0" disallow="tram rail_urban rail rail_electric rail_fast ship" speed="3.65" length="4.67" shape="741.79,795.71 740.78,796.74 739.92,796.98 739.21,796.44 738.65,795.12"/>
    </edge>
    <edge id=":10870695689_0" function="internal">
        <lane id=":10870695689_0_0" index="0" disallow="tram rail_urban rail rail_electric rail_fast ship" speed="13.89" length="8.31" shape="1893.98,205.91 1891.49,205.45 1889.64,205.89 1887.79,206.32 1885.31,205.83"/>
        <lane id=":10870695689_0_1" index="1" disallow="tram rail_urban rail rail_electric rail_fast ship" speed="13.89" length="8.31" shape="1893.98,205.91 1886.54,202.88"/>
        <lane id=":10870695689_0_2" index="2" disallow="tram rail_urban rail rail_electric rail_fast ship" speed="13.89" length="8.31" shape="1895.17,202.94 1887.77,199.92"/>
        <lane id=":10870695689_0_3" index="3" disallow="tram rail_urban rail rail_electric rail_fast ship" speed="13.89" length="8.31" shape="1896.36,199.97 1889.00,196.97"/>
        <lane id=":10870695689_0_4" index="4" disallow="tram rail_urban rail rail_electric rail_fast ship" speed="13.89" length="8.31" shape="1896.36,199.97 1894.28,198.60 1893.28,197.01 1892.29,195.41 1890.23,194.01"/>
    </edge>
    <edge id=":10878185059_0" function="internal">
        <lane id=":10878185059_0_0" index="0" disallow="tram rail_urban rail rail_electric rail_fast ship" speed="13.89" length="8.21" shape="1520.34,184.81 1522.73,184.50 1524.32,183.91 1525.91,183.32 1528.30,183.01"/>
        <lane id=":10878185059_0_1" index="1" disallow="tram rail_urban rail rail_electric rail_fast ship" speed="13.89" length="8.21" shape="1520.42,188.01 1522.81,187.70 1524.40,187.11 1525.99,186.52 1528.38,186.21"/>
        <lane id=":10878185059_0_2" index="2" disallow="tram rail_urban rail rail_electric rail_fast ship" speed="13.89" length="8.21" shape="1520.51,191.21 1522.90,190.90 1524.48,190.31 1526.07,189.72 1528.46,189.41"/>
        <lane id=":10878185059_0_3" index="3" disallow="tram rail_urban rail rail_electric rail_fast ship" speed="13.89" length="8.21" shape="1520.51,191.21 1522.91,191.40 1524.52,191.91 1526.14,192.42 1528.54,192.60"/>
    </edge>
    <edge id=":10880943164_0" function="internal">
        <lane id=":10880943164_0_0" index="0" disallow="tram rail_urban rail rail_electric rail_fast ship" speed="13.89" length="6.99" shape="960.47,863.31 958.65,861.98 957.19,861.31 955.81,860.57 954.23,859.00"/>
        <lane id=":10880943164_0_1" index="1" disallow="tram rail_urban rail rail_electric rail_fast ship" speed="13.89" length="6.99" shape="962.62,860.95 960.91,859.71 959.52,859.12 958.22,858.45 956.72,857.00"/>
        <lane id=":10880943164_0_2" index="2" disallow="tram rail_urban rail rail_electric rail_fast ship" speed="13.89" length="6.99" shape="964.78,858.59 963.17,857.45 961.86,856.92 960.62,856.33 959.22,854.99"/>
        <lane id=":10880943164_0_3" index="3" disallow="tram rail_urban rail rail_electric rail_fast ship" speed="13.89" length="6.99" shape="964.78,858.59 963.59,857.15 963.11,855.91 962.70,854.61 961.71,852.99"/>
    </edge>
    <edge id=":10880943165_0" function="internal">
        <lane id=":10880943165_0_0" index="0" disallow="tram rail_urban rail rail_electric rail_fast ship" speed="13.89" length="8.21" shape="979.08,877.96 977.12,876.55 975.56,875.89 974.00,875.23 972.05,873.82"/>
        <lane id=":10880943165_0_1" index="1" disallow="tram rail_urban rail rail_electric rail_fast ship" speed="13.89" length="8.21" shape="981.21,875.58 979.26,874.16 977.69,873.51 976.13,872.85 974.18,871.44"/>
        <lane id=":10880943165_0_2" index="2" disallow="tram rail_urban rail rail_electric rail_fast ship" speed="13.89" length="8.21" shape="981.21,875.58 979.59,873.79 978.76,872.31 977.93,870.84 976.31,869.05"/>
    </edge>
    <edge id=":10881226686_0" function="internal">
        <lane id=":10881226686_0_0" index="0" disallow="tram rail_urban rail rail_electric rail_fast ship" speed="13.89" length="7.43" shape="1637.90,1056.85 1640.02,1056.38 1641.42,1055.80 1642.83,1055.28 1644.96,1054.99"/>
        <lane id=":10881226686_0_1" index="1" disallow="tram rail_urban rail rail_electric rail_fast ship" speed="13.89" length="7.43" shape="1637.93,1060.07 1640.08,1059.60 1641.50,1059.01 1642.93,1058.48 1645.10,1058.19"/>
        <lane id=":10881226686_0_2" index="2" disallow="tram rail_urban rail rail_electric rail_fast ship" speed="13.89" length="7.43" shape="1637.93,1060.07 1640.11,1060.10 1641.57,1060.61 1643.05,1061.18 1645.23,1061.39"/>
    </edge>
    <edge id=":10881236483_0" function="internal">
        <lane id=":10881236483_0_0" index="0" disallow="tram rail_urban rail rail_electric rail_fast ship" speed="13.89" length="8.17" shape="2175.17,676.08 2175.63,678.40 2176.33,679.91 2177.04,681.42 2177.56,683.73"/>
        <lane id=":10881236483_0_1" index="1" disallow="tram rail_urban rail rail_electric rail_fast ship" speed="13.89" length="8.17" shape="2175.17,676.08 2175.14,678.46 2174.74,680.09 2174.36,681.71 2174.38,684.09"/>
        <lane id=":10881236483_0_2" index="2" disallow="tram rail_urban rail rail_electric rail_fast ship" speed="13.89" length="8.17" shape="2171.99,676.37 2171.95,678.77 2171.56,680.41 2171.18,682.05 2171.20,684.45"/>
        <lane id=":10881236483_0_3" index="3" disallow="tram rail_urban rail rail_electric rail_fast ship" speed="13.89" length="8.17" shape="2168.80,676.65 2168.77,679.08 2168.37,680.73 2168.00,682.39 2168.01,684.80"/>
        <lane id=":10881236483_0_4" index="4" disallow="tram rail_urban rail rail_electric rail_fast ship" speed="13.89" length="8.17" shape="2165.61,676.94 2165.58,679.38 2165.19,681.05 2164.81,682.72 2164.83,685.16"/>
    </edge>
    <edge id=":10881543783_0" function="internal">
        <lane id=":10881543783_0_0" index="0" disallow="tram rail_urban rail rail_electric rail_fast ship" speed="13.89" length="0.76" shape="1978.67,965.01 1977.71,965.38"/>
        <lane id=":10881543783_0_1" index="1" disallow="tram rail_urban rail rail_electric rail_fast ship" speed="13.89" length="0.76" shape="1977.46,962.05 1976.63,962.37"/>
        <lane id=":10881543783_0_2" index="2" disallow="tram rail_urban rail rail_electric rail_fast ship" speed="13.89" length="0.76" shape="1976.25,959.08 1975.55,959.35"/>
        <lane id=":10881543783_0_3" index="3" disallow="tram rail_urban rail rail_electric rail_fast ship" speed="13.89" length="0.76" shape="1975.05,956.12 1974.47,956.34"/>
        <lane id=":10881543783_0_4" index="4" disallow="tram rail_urban rail rail_electric rail_fast ship" speed="13.89" length="0.76" shape="1973.84,953.16 1973.39,953.33"/>
    </edge>
    <edge id=":11300348556_0" function="internal">
        <lane id=":11300348556_0_0" index="0" disallow="tram rail_urban rail rail_electric rail_fast ship" speed="11.11" length="0.30" shape="1647.53,865.09 1647.24,865.01"/>
    </edge>
    <edge id=":11300348556_1" function="internal">
        <lane id=":11300348556_1_0" index="0" disallow="tram rail_urban rail rail_electric rail_fast ship" speed="11.11" length="0.30" shape="1648.18,861.95 1648.47,862.03"/>
    </edge>
    <edge id=":11380429821_0" function="internal">
        <lane id=":11380429821_0_0" index="0" disallow="tram rail_urban rail rail_electric rail_fast ship" speed="2.78" length="4.67" shape="1235.35,902.18 1236.38,903.20 1236.62,904.06 1236.07,904.77 1234.75,905.33"/>
    </edge>
    <edge id=":11916799833_0" function="internal">
        <lane id=":11916799833_0_0" index="0" disallow="tram rail_urban rail rail_electric rail_fast ship" speed="3.65" length="4.67" shape="2056.37,740.29 2057.11,739.05 2057.89,738.61 2058.71,738.97 2059.57,740.13"/>
    </edge>
    <edge id=":11916799834_0" function="internal">
        <lane id=":11916799834_0_0" index="0" disallow="tram rail_urban rail rail_electric rail_fast ship" speed="3.65" length="4.67" shape="2009.07,743.80 2009.75,742.54 2010.51,742.06 2011.35,742.39 2012.25,743.51"/>
    </edge>
    <edge id=":11991149639_0" function="internal">
        <lane id=":11991149639_0_0" index="0" disallow="tram rail_urban rail rail_electric rail_fast ship" speed="3.65" length="4.67" shape="643.28,491.72 642.48,490.52 642.42,489.63 643.10,489.04 644.51,488.77"/>
    </edge>
    <edge id=":12044331836_0" function="internal">
        <lane id=":12044331836_0_0" index="0" disallow="tram rail_urban rail rail_electric rail_fast ship" speed="3.65" length="4.67" shape="1733.85,1015.12 1732.88,1014.06 1732.68,1013.19 1733.26,1012.51 1734.62,1012.02"/>
    </edge>
    <edge id=":12044331839_0" function="internal">
        <lane id=":12044331839_0_0" index="0" disallow="tram rail_urban rail rail_electric rail_fast ship" speed="3.65" length="4.67" shape="1604.34,1045.21 1605.68,1044.66 1606.56,1044.77 1607.00,1045.55 1607.00,1046.99"/>
    </edge>
    <edge id=":1207649782_0" function="internal">
        <lane id=":1207649782_0_0" index="0" disallow="tram rail_urban rail rail_electric rail_fast ship" speed="8.33" length="8.36" shape="990.69,856.12 991.86,856.88 993.59,857.32 995.89,857.42 998.76,857.20"/>
    </edge>
    <edge id=":1207649782_1" function="internal">
        <lane id=":1207649782_1_0" index="0" disallow="tram rail_urban rail rail_electric rail_fast ship" speed="13.89" length="10.37" shape="990.69,856.12 997.98,862.94"/>
        <lane id=":1207649782_1_1" index="1" disallow="tram rail_urban rail rail_electric rail_fast ship" speed="13.89" length="10.37" shape="988.38,858.34 995.86,865.34"/>
        <lane id=":1207649782_1_2" index="2" disallow="tram rail_urban rail rail_electric rail_fast ship" speed="13.89" length="10.37" shape="986.07,860.56 993.74,867.74"/>
        <lane id=":1207649782_1_3" index="3" disallow="tram rail_urban rail rail_electric rail_fast ship" speed="13.89" length="10.37" shape="983.76,862.77 991.62,870.13"/>
    </edge>
    <edge id=":1288999284_0" function="internal">
        <lane id=":1288999284_0_0" index="0" disallow="pedestrian tram rail_urban rail rail_electric rail_fast ship" speed="13.89" length="0.48" shape="934.63,759.46 934.70,758.82"/>
        <lane id=":1288999284_0_1" index="1" disallow="pedestrian tram rail_urban rail rail_electric rail_fast ship" speed="13.89" length="0.48" shape="937.82,759.76 937.88,759.23"/>
        <lane id=":1288999284_0_2" index="2" disallow="pedestrian tram rail_urban rail rail_electric rail_fast ship" speed="13.89" length="0.48" shape="941.01,760.06 941.05,759.64"/>
        <lane id=":1288999284_0_3" index="3" disallow="pedestrian tram rail_urban rail rail_electric rail_fast ship" speed="13.89" length="0.48" shape="944.19,760.36 944.23,760.04"/>
    </edge>
    <edge id=":1313023182_0" function="internal">
        <lane id=":1313023182_0_0" index="0" disallow="tram rail_urban rail rail_electric rail_fast ship" speed="3.65" length="4.67" shape="757.89,692.58 758.90,691.55 759.76,691.30 760.47,691.84 761.04,693.17"/>
    </edge>
    <edge id=":1438376502_0" function="internal">
        <lane id=":1438376502_0_0" index="0" disallow="tram rail_urban rail rail_electric rail_fast ship" speed="8.33" length="8.89" shape="1380.85,519.45 1379.49,521.70 1378.64,523.83 1378.31,525.85 1378.49,527.76"/>
    </edge>
    <edge id=":1438376502_1" function="internal">
        <lane id=":1438376502_1_0" index="0" disallow="tram rail_urban rail rail_electric rail_fast ship" speed="8.26" length="9.00" shape="1369.88,519.85 1372.81,519.91 1375.17,519.55 1376.98,518.78 1378.24,517.61"/>
    </edge>
    <edge id=":1438376502_2" function="internal">
        <lane id=":1438376502_2_0" index="0" disallow="tram rail_urban rail rail_electric rail_fast ship" speed="8.33" length="12.60" shape="1369.88,519.85 1372.99,520.55 1375.46,522.11 1377.30,524.51 1378.49,527.76"/>
    </edge>
    <edge id=":1438376508_0" function="internal">
        <lane id=":1438376508_0_0" index="0" disallow="tram rail_urban rail rail_electric rail_fast ship" speed="5.56" length="8.44" shape="1364.76,541.43 1362.28,540.94 1360.12,540.95 1358.26,541.45 1356.72,542.44"/>
    </edge>
    <edge id=":1438376508_1" function="internal">
        <lane id=":1438376508_1_0" index="0" disallow="tram rail_urban rail rail_electric rail_fast ship" speed="8.33" length="12.98" shape="1364.76,541.43 1361.92,540.19 1359.65,538.21 1357.94,535.48 1356.79,532.01"/>
    </edge>
    <edge id=":1438376508_2" function="internal">
        <lane id=":1438376508_2_0" index="0" disallow="tram rail_urban rail rail_electric rail_fast ship" speed="5.56" length="8.76" shape="1354.59,540.05 1355.98,538.43 1356.81,536.55 1357.08,534.41 1356.79,532.01"/>
    </edge>
    <edge id=":1438376509_0" function="internal">
        <lane id=":1438376509_0_0" index="0" disallow="tram rail_urban rail rail_electric rail_fast ship" speed="8.33" length="10.17" shape="1385.03,534.70 1382.02,534.94 1379.91,535.33 1378.08,536.29 1375.93,538.30"/>
    </edge>
    <edge id=":1438376509_1" function="internal">
        <lane id=":1438376509_1_0" index="0" disallow="tram rail_urban rail rail_electric rail_fast ship" speed="6.46" length="7.89" shape="1378.54,527.96 1379.29,529.69 1380.57,530.86 1382.39,531.46 1384.74,531.51"/>
    </edge>
    <edge id=":1438376509_2" function="internal">
        <lane id=":1438376509_2_0" index="0" disallow="tram rail_urban rail rail_electric rail_fast ship" speed="8.33" length="11.13" shape="1378.54,527.96 1378.92,530.87 1378.61,533.56 1377.62,536.04 1375.93,538.30"/>
    </edge>
    <edge id=":1438376522_0" function="internal">
        <lane id=":1438376522_0_0" index="0" disallow="tram rail_urban rail rail_electric rail_fast ship" speed="8.33" length="9.06" shape="1166.19,580.04 1164.10,578.30 1162.70,576.86 1161.17,575.91 1158.66,575.62"/>
    </edge>
    <edge id=":1438376522_1" function="internal">
        <lane id=":1438376522_1_0" index="0" disallow="tram rail_urban rail rail_electric rail_fast ship" speed="7.21" length="13.37" shape="1166.19,580.04 1163.57,577.59 1162.68,574.94 1163.53,572.09 1166.11,569.02"/>
    </edge>
    <edge id=":1438376522_2" function="internal">
        <lane id=":1438376522_2_0" index="0" disallow="tram rail_urban rail rail_electric rail_fast ship" speed="8.33" length="8.59" shape="1158.55,572.42 1161.05,572.22 1162.74,571.72 1164.22,570.72 1166.11,569.02"/>
    </edge>
    <edge id=":1438389266_0" function="internal">
        <lane id=":1438389266_0_0" index="0" disallow="tram rail_urban rail rail_electric rail_fast ship" speed="8.33" length="8.00" shape="1318.16,495.27 1312.66,489.47"/>
    </edge>
    <edge id=":1438389266_1" function="internal">
        <lane id=":1438389266_1_0" index="0" disallow="tram rail_urban rail rail_electric rail_fast ship" speed="8.33" length="8.81" shape="1317.30,485.06 1318.63,487.19 1318.89,489.07 1319.15,490.94 1320.49,493.07"/>
    </edge>
    <edge id=":1438389287_0" function="internal">
        <lane id=":1438389287_0_0" index="0" disallow="tram rail_urban rail rail_electric rail_fast ship" speed="2.78" length="5.18" shape="1240.52,576.68 1240.35,575.35 1240.53,574.12 1241.05,572.99 1241.93,571.97"/>
    </edge>
    <edge id=":1438389287_1" function="internal">
        <lane id=":1438389287_1_0" index="0" disallow="tram rail_urban rail rail_electric rail_fast ship" speed="2.78" length="1.73" shape="1244.09,574.33 1243.80,574.67 1243.63,575.04 1243.57,575.45 1243.63,575.90"/>
    </edge>
    <edge id=":1544575964_0" function="internal">
        <lane id=":1544575964_0_0" index="0" disallow="tram rail_urban rail rail_electric rail_fast ship" speed="8.33" length="14.42" shape="797.43,226.93 796.17,241.30"/>
    </edge>
    <edge id=":1544575964_1" function="internal">
        <lane id=":1544575964_1_0" index="0" disallow="tram rail_urban rail rail_electric rail_fast ship" speed="5.56" length="3.87" shape="797.43,226.93 796.54,230.55 796.46,230.66"/>
    </edge>
    <edge id=":1544575964_2" function="internal">
        <lane id=":1544575964_2_0" index="0" disallow="tram rail_urban rail rail_electric rail_fast ship" speed="3.65" length="1.44" shape="797.43,226.93 796.53,228.06"/>
    </edge>
    <edge id=":1544575964_9" function="internal">
        <lane id=":1544575964_9_0" index="0" disallow="tram rail_urban rail rail_electric rail_fast ship" speed="5.56" length="10.51" shape="796.46,230.66 794.62,233.16 791.66,234.79 787.68,235.42"/>
    </edge>
    <edge id=":1544575964_10" function="internal">
        <lane id=":1544575964_10_0" index="0" disallow="tram rail_urban rail rail_electric rail_fast ship" speed="3.65" length="3.23" shape="796.53,228.06 795.69,228.38 794.93,227.91 794.25,226.64"/>
    </edge>
    <edge id=":1544575964_3" function="internal">
        <lane id=":1544575964_3_0" index="0" disallow="tram rail_urban rail rail_electric rail_fast ship" speed="5.56" length="9.66" shape="787.58,232.22 790.31,231.80 792.33,230.73 793.65,229.01 794.25,226.64"/>
    </edge>
    <edge id=":1544575964_4" function="internal">
        <lane id=":1544575964_4_0" index="0" disallow="tram rail_urban rail rail_electric rail_fast ship" speed="5.56" length="14.65" shape="787.58,232.22 791.64,232.68 794.42,234.35 795.93,237.22 796.17,241.30"/>
    </edge>
    <edge id=":1544575964_5" function="internal">
        <lane id=":1544575964_5_0" index="0" disallow="tram rail_urban rail rail_electric rail_fast ship" speed="2.78" length="4.67" shape="787.58,232.22 788.81,232.99 789.23,233.77 788.85,234.58 787.68,235.42"/>
    </edge>
    <edge id=":1544575964_6" function="internal">
        <lane id=":1544575964_6_0" index="0" disallow="tram rail_urban rail rail_electric rail_fast ship" speed="5.56" length="9.04" shape="792.98,241.02 792.83,238.51 791.90,236.73 790.18,235.71 787.68,235.42"/>
    </edge>
    <edge id=":1544575964_7" function="internal">
        <lane id=":1544575964_7_0" index="0" disallow="tram rail_urban rail rail_electric rail_fast ship" speed="8.33" length="14.44" shape="792.98,241.02 794.25,226.64"/>
    </edge>
    <edge id=":1544575964_8" function="internal">
        <lane id=":1544575964_8_0" index="0" disallow="tram rail_urban rail rail_electric rail_fast ship" speed="3.65" length="1.44" shape="792.98,241.02 793.88,239.89"/>
    </edge>
    <edge id=":1544575964_11" function="internal">
        <lane id=":1544575964_11_0" index="0" disallow="tram rail_urban rail rail_electric rail_fast ship" speed="3.65" length="3.23" shape="793.88,239.89 794.71,239.56 795.47,240.03 796.17,241.30"/>
    </edge>
    <edge id=":1544577045_0" function="internal">
        <lane id=":1544577045_0_0" index="0" disallow="tram rail_urban rail rail_electric rail_fast ship" speed="2.78" length="9.47" shape="690.60,245.52 690.11,242.86 688.97,240.99 687.18,239.89 684.73,239.57"/>
    </edge>
    <edge id=":1544577045_1" function="internal">
        <lane id=":1544577045_1_0" index="0" disallow="tram rail_urban rail rail_electric rail_fast ship" speed="2.78" length="14.81" shape="690.60,245.52 690.36,230.71"/>
    </edge>
    <edge id=":1544577045_2" function="internal">
        <lane id=":1544577045_2_0" index="0" disallow="tram rail_urban rail rail_electric rail_fast ship" speed="2.78" length="14.71" shape="690.60,245.52 690.97,241.42 692.59,238.61 695.45,237.07 699.55,236.80"/>
    </edge>
    <edge id=":1544577045_3" function="internal">
        <lane id=":1544577045_3_0" index="0" disallow="tram rail_urban rail rail_electric rail_fast ship" speed="2.78" length="4.67" shape="690.60,245.52 691.33,244.28 692.11,243.83 692.93,244.19 693.79,245.35"/>
    </edge>
    <edge id=":1544577045_4" function="internal">
        <lane id=":1544577045_4_0" index="0" disallow="tram rail_urban rail rail_electric rail_fast ship" speed="2.78" length="9.05" shape="699.30,239.99 696.78,240.15 695.02,241.10 694.02,242.83 693.79,245.35"/>
    </edge>
    <edge id=":1544577045_5" function="internal">
        <lane id=":1544577045_5_0" index="0" disallow="tram rail_urban rail rail_electric rail_fast ship" speed="2.78" length="14.58" shape="699.30,239.99 695.62,239.74 692.02,239.59 688.41,239.53 684.73,239.57"/>
    </edge>
    <edge id=":1544577045_6" function="internal">
        <lane id=":1544577045_6_0" index="0" disallow="tram rail_urban rail rail_electric rail_fast ship" speed="2.78" length="14.51" shape="699.30,239.99 695.31,239.14 692.50,237.31 690.84,234.50 690.36,230.71"/>
    </edge>
    <edge id=":1544577045_7" function="internal">
        <lane id=":1544577045_7_0" index="0" disallow="tram rail_urban rail rail_electric rail_fast ship" speed="2.78" length="4.67" shape="699.30,239.99 698.16,239.10 697.83,238.27 698.29,237.50 699.55,236.80"/>
    </edge>
    <edge id=":1544577045_8" function="internal">
        <lane id=":1544577045_8_0" index="0" disallow="tram rail_urban rail rail_electric rail_fast ship" speed="2.78" length="9.56" shape="693.56,230.78 693.89,233.23 694.99,235.06 696.88,236.24 699.55,236.80"/>
    </edge>
    <edge id=":1544577045_9" function="internal">
        <lane id=":1544577045_9_0" index="0" disallow="tram rail_urban rail rail_electric rail_fast ship" speed="2.78" length="14.57" shape="693.56,230.78 693.79,245.35"/>
    </edge>
    <edge id=":1544577045_10" function="internal">
        <lane id=":1544577045_10_0" index="0" disallow="tram rail_urban rail rail_electric rail_fast ship" speed="2.78" length="14.06" shape="693.56,230.78 692.93,234.55 691.25,237.27 688.52,238.94 684.73,239.57"/>
    </edge>
    <edge id=":1544577045_11" function="internal">
        <lane id=":1544577045_11_0" index="0" disallow="tram rail_urban rail rail_electric rail_fast ship" speed="2.78" length="4.67" shape="693.56,230.78 692.73,231.96 691.92,232.35 691.13,231.93 690.36,230.71"/>
    </edge>
    <edge id=":1544577045_12" function="internal">
        <lane id=":1544577045_12_0" index="0" disallow="tram rail_urban rail rail_electric rail_fast ship" speed="2.78" length="9.08" shape="684.65,236.37 687.10,235.97 688.87,234.89 689.95,233.14 690.36,230.71"/>
    </edge>
    <edge id=":1544577045_13" function="internal">
        <lane id=":1544577045_13_0" index="0" disallow="tram rail_urban rail rail_electric rail_fast ship" speed="2.78" length="14.92" shape="684.65,236.37 688.38,236.33 692.10,236.39 695.82,236.55 699.55,236.80"/>
    </edge>
    <edge id=":1544577045_14" function="internal">
        <lane id=":1544577045_14_0" index="0" disallow="tram rail_urban rail rail_electric rail_fast ship" speed="2.78" length="14.53" shape="684.65,236.37 688.47,236.85 691.27,238.51 693.04,241.34 693.79,245.35"/>
    </edge>
    <edge id=":1544577045_15" function="internal">
        <lane id=":1544577045_15_0" index="0" disallow="tram rail_urban rail rail_electric rail_fast ship" speed="2.78" length="4.67" shape="684.65,236.37 685.87,237.14 686.29,237.93 685.91,238.74 684.73,239.57"/>
    </edge>
    <edge id=":1546216534_0" function="internal">
        <lane id=":1546216534_0_0" index="0" disallow="tram rail_urban rail rail_electric rail_fast ship" speed="2.78" length="4.67" shape="694.76,93.03 695.62,91.87 696.43,91.50 697.21,91.94 697.96,93.18"/>
    </edge>
    <edge id=":1546216538_0" function="internal">
        <lane id=":1546216538_0_0" index="0" disallow="tram rail_urban rail rail_electric rail_fast ship" speed="3.65" length="4.67" shape="796.53,96.16 797.35,94.98 798.16,94.59 798.95,95.00 799.73,96.22"/>
    </edge>
    <edge id=":1546230796_0" function="internal">
        <lane id=":1546230796_0_0" index="0" disallow="tram rail_urban rail rail_electric rail_fast ship" speed="3.65" length="4.67" shape="884.97,98.15 885.78,96.96 886.59,96.57 887.38,96.98 888.17,98.19"/>
    </edge>
    <edge id=":178740178_0" function="internal">
        <lane id=":178740178_0_0" index="0" disallow="tram rail_urban rail rail_electric rail_fast ship" speed="3.91" length="2.34" shape="1396.65,789.59 1396.52,788.97 1396.22,788.52 1395.76,788.23 1395.14,788.11"/>
    </edge>
    <edge id=":178740178_1" function="internal">
        <lane id=":178740178_1_0" index="0" disallow="tram rail_urban rail rail_electric rail_fast ship" speed="6.31" length="7.08" shape="1395.33,784.72 1397.18,785.22 1398.56,786.15 1399.44,787.53 1399.84,789.34"/>
    </edge>
    <edge id=":178754227_0" function="internal">
        <lane id=":178754227_0_0" index="0" disallow="tram rail_urban rail rail_electric rail_fast ship" speed="3.65" length="4.67" shape="1524.02,475.48 1523.34,476.76 1522.59,477.23 1521.75,476.91 1520.84,475.80"/>
    </edge>
    <edge id=":179620647_0" function="internal">
        <lane id=":179620647_0_0" index="0" disallow="tram rail_urban rail rail_electric rail_fast ship" speed="11.79" length="14.37" shape="2180.67,711.46 2181.44,714.27 2183.10,717.06 2185.68,719.83 2189.15,722.58"/>
        <lane id=":179620647_0_1" index="1" disallow="tram rail_urban rail rail_electric rail_fast ship" speed="12.98" length="15.84" shape="2177.49,711.82 2178.30,714.96 2180.05,718.12 2182.74,721.30 2186.35,724.49"/>
    </edge>
    <edge id=":179620647_2" function="internal">
        <lane id=":179620647_2_0" index="0" disallow="tram rail_urban rail rail_electric rail_fast ship" speed="13.89" length="15.60" shape="2177.49,711.82 2178.26,716.38 2179.17,719.45 2180.03,722.52 2180.67,727.10"/>