<?xml version="1.0" encoding="UTF-8"?>

<!-- generated on 2024-04-21 13:04:01.884364 by osmWebWizard.py UNKNOWN
<configuration>
    <fringe-factor value="1"/>
    <insertion-density value="10.0"/>
    <max-distance value="2000.0"/>
    <net-file value="/Users/yasser/2024-04-21-13-03-17/osm.net.xml.gz"/>
    <pedestrians value="True"/>
    <route-file value="/Users/yasser/2024-04-21-13-03-17/osm.pedestrian.rou.xml"/>
    <output-trip-file value="/Users/yasser/2024-04-21-13-03-17/osm.pedestrian.trips.xml"/>
    <prefix value="ped"/>
    <vehicle-class value="pedestrian"/>
</configuration>
-->

<routes xmlns:xsi="http://www.w3.org/2001/XMLSchema-instance" xsi:noNamespaceSchemaLocation="http://sumo.dlr.de/xsd/routes_file.xsd">
    <vType id="ped_pedestrian" vClass="pedestrian"/>
    <person id="ped0" depart="0.00" type="ped_pedestrian">
        <walk from="55094021#1" to="-1093918401#2"/>
    </person>
    <person id="ped1" depart="0.97" type="ped_pedestrian">
        <walk from="1060400990#1" to="-763602813"/>
    </person>
    <person id="ped2" depart="1.94" type="ped_pedestrian">
        <walk from="58963213#3" to="56434810#0"/>
    </person>
    <person id="ped3" depart="2.92" type="ped_pedestrian">
        <walk from="689457119" to="-27774529#0"/>
    </person>
    <person id="ped4" depart="3.89" type="ped_pedestrian">
        <walk from="26231121#7" to="-1128334472#0"/>
    </person>
    <person id="ped5" depart="4.86" type="ped_pedestrian">
        <walk from="-674801480" to="331396255#1"/>
    </person>
    <person id="ped6" depart="5.83" type="ped_pedestrian">
        <walk from="-1101307436#0" to="-60409634#0"/>
    </person>
    <person id="ped7" depart="6.81" type="ped_pedestrian">
        <walk from="55482894#4" to="4546222#3"/>
    </person>
    <person id="ped8" depart="7.78" type="ped_pedestrian">
        <walk from="-689453247#0" to="53590772#3"/>
    </person>
    <person id="ped9" depart="8.75" type="ped_pedestrian">
        <walk from="671575647#1" to="-104695403#1"/>
    </person>
    <person id="ped10" depart="9.72" type="ped_pedestrian">
        <walk from="1227274455" to="-55064521#1"/>
    </person>
    <person id="ped11" depart="10.69" type="ped_pedestrian">
        <walk from="880278078#0" to="1215209962#1"/>
    </person>
    <person id="ped12" depart="11.67" type="ped_pedestrian">
        <walk from="-30644471#8" to="-31610728#33"/>
    </person>
    <person id="ped13" depart="12.64" type="ped_pedestrian">
        <walk from="689416200#9" to="53803649#0"/>
    </person>
    <person id="ped14" depart="13.61" type="ped_pedestrian">
        <walk from="660335472#0" to="58885464#6"/>
    </person>
    <person id="ped15" depart="14.58" type="ped_pedestrian">
        <walk from="41211484#1" to="954923375"/>
    </person>
    <person id="ped16" depart="15.56" type="ped_pedestrian">
        <walk from="209018100" to="480838993#4"/>
    </person>
    <person id="ped17" depart="16.53" type="ped_pedestrian">
        <walk from="689452978#5" to="53137623#1"/>
    </person>
    <person id="ped18" depart="17.50" type="ped_pedestrian">
        <walk from="58112593#0" to="-1230749154#0"/>
    </person>
    <person id="ped19" depart="18.47" type="ped_pedestrian">
        <walk from="-863849577" to="108224574#2"/>
    </person>
    <person id="ped20" depart="19.44" type="ped_pedestrian">
        <walk from="-25171322#8" to="-934054182#2"/>
    </person>
    <person id="ped21" depart="20.42" type="ped_pedestrian">
        <walk from="-32903764#1" to="107073705#1"/>
    </person>
    <person id="ped22" depart="21.39" type="ped_pedestrian">
        <walk from="55064498#1" to="153955571#5"/>
    </person>
    <person id="ped23" depart="22.36" type="ped_pedestrian">
        <walk from="17408104#11" to="-64625169#1"/>
    </person>
    <person id="ped24" depart="23.33" type="ped_pedestrian">
        <walk from="105332059#0" to="854875409#1"/>
    </person>
    <person id="ped25" depart="24.31" type="ped_pedestrian">
        <walk from="55451083" to="53864579#1"/>
    </person>
    <person id="ped26" depart="25.28" type="ped_pedestrian">
        <walk from="-55758542#2" to="58885462"/>
    </person>
    <person id="ped27" depart="26.25" type="ped_pedestrian">
        <walk from="-55143539#0" to="209185710#1"/>
    </person>
    <person id="ped28" depart="27.22" type="ped_pedestrian">
        <walk from="984541814#11" to="55094021#7"/>
    </person>
    <person id="ped29" depart="28.19" type="ped_pedestrian">
        <walk from="496935180" to="56985891#2"/>
    </person>
    <person id="ped30" depart="29.17" type="ped_pedestrian">
        <walk from="689416157#1" to="60495282#1"/>
    </person>
    <person id="ped31" depart="30.14" type="ped_pedestrian">
        <walk from="-880930214#0" to="-1142009576"/>
    </person>
    <person id="ped32" depart="31.11" type="ped_pedestrian">
        <walk from="1142004748" to="1054055038#1"/>
    </person>
    <person id="ped33" depart="32.08" type="ped_pedestrian">
        <walk from="689453172" to="1137820424"/>
    </person>
    <person id="ped34" depart="33.06" type="ped_pedestrian">
        <walk from="55604195#8" to="229988702#0"/>
    </person>
    <person id="ped35" depart="34.03" type="ped_pedestrian">
        <walk from="768126161#1" to="314742519#1"/>
    </person>
    <person id="ped36" depart="35.00" type="ped_pedestrian">
        <walk from="105331779#0" to="102939310"/>
    </person>
    <person id="ped37" depart="35.97" type="ped_pedestrian">
        <walk from="502124890" to="105212926#0"/>
    </person>
    <person id="ped38" depart="36.94" type="ped_pedestrian">
        <walk from="53353064#2" to="699052426"/>
    </person>
    <person id="ped39" depart="37.92" type="ped_pedestrian">
        <walk from="23028927#6" to="-688245470#2"/>
    </person>
    <person id="ped40" depart="38.89" type="ped_pedestrian">
        <walk from="-30016043#0" to="-1247512897"/>
    </person>
    <person id="ped41" depart="39.86" type="ped_pedestrian">
        <walk from="-398365534#0" to="54355118#2"/>
    </person>
    <person id="ped42" depart="40.83" type="ped_pedestrian">
        <walk from="631597402#0" to="26231123#1"/>
    </person>
    <person id="ped43" depart="41.81" type="ped_pedestrian">
        <walk from="-187766389#1" to="22735987#1"/>
    </person>
    <person id="ped44" depart="42.78" type="ped_pedestrian">
        <walk from="946101316#0" to="689452969"/>
    </person>
    <person id="ped45" depart="43.75" type="ped_pedestrian">
        <walk from="-105212933#0" to="58873630#1"/>
    </person>
    <person id="ped46" depart="44.72" type="ped_pedestrian">
        <walk from="56694214#1" to="41215071#0"/>
    </person>
    <person id="ped47" depart="45.69" type="ped_pedestrian">
        <walk from="105332022#1" to="55108626#3"/>
    </person>
    <person id="ped48" depart="46.67" type="ped_pedestrian">
        <walk from="-41215071#1" to="28706674#1"/>
    </person>
    <person id="ped49" depart="47.64" type="ped_pedestrian">
        <walk from="314742445#2" to="877556351"/>
    </person>
    <person id="ped50" depart="48.61" type="ped_pedestrian">
        <walk from="689453164" to="105212935#0"/>
    </person>
    <person id="ped51" depart="49.58" type="ped_pedestrian">
        <walk from="330355714#8" to="-56658626#1"/>
    </person>
    <person id="ped52" depart="50.56" type="ped_pedestrian">
        <walk from="766699812#1" to="689453083#3"/>
    </person>
    <person id="ped53" depart="51.53" type="ped_pedestrian">
        <walk from="53863672#4" to="-54905566#2"/>
    </person>
    <person id="ped54" depart="52.50" type="ped_pedestrian">
        <walk from="60139694" to="42161410#1"/>
    </person>
    <person id="ped55" depart="53.47" type="ped_pedestrian">
        <walk from="60495296#9" to="395334152#3"/>
    </person>
    <person id="ped56" depart="54.45" type="ped_pedestrian">
        <walk from="-1006009523" to="1158777573#1"/>
    </person>
    <person id="ped57" depart="55.42" type="ped_pedestrian">
        <walk from="-1075560430#15" to="772742999#0"/>
    </person>
    <person id="ped58" depart="56.39" type="ped_pedestrian">
        <walk from="689453222" to="689416018#12"/>
    </person>
    <person id="ped59" depart="57.36" type="ped_pedestrian">
        <walk from="1111162066" to="-15020166#6"/>
    </person>
    <person id="ped60" depart="58.33" type="ped_pedestrian">
        <walk from="689453202" to="873492168#0"/>
    </person>
    <person id="ped61" depart="59.31" type="ped_pedestrian">
        <walk from="-27592702" to="327592533#1"/>
    </person>
    <person id="ped62" depart="60.28" type="ped_pedestrian">
        <walk from="-23066913#2" to="60117665#0"/>
    </person>
    <person id="ped63" depart="61.25" type="ped_pedestrian">
        <walk from="317807124#4" to="47074856#2"/>
    </person>
    <person id="ped64" depart="62.22" type="ped_pedestrian">
        <walk from="26231152#5" to="-659231666#0"/>
    </person>
    <person id="ped65" depart="63.20" type="ped_pedestrian">
        <walk from="42125952" to="58885465#0"/>
    </person>
    <person id="ped66" depart="64.17" type="ped_pedestrian">
        <walk from="-61670092#3" to="1134419861#1"/>
    </person>
    <person id="ped67" depart="65.14" type="ped_pedestrian">
        <walk from="996641616#1" to="55482894#4"/>
    </person>
    <person id="ped68" depart="66.11" type="ped_pedestrian">
        <walk from="290701219#0" to="34555813#5"/>
    </person>
    <person id="ped69" depart="67.08" type="ped_pedestrian">
        <walk from="-502143321#1" to="-772742981#1"/>
    </person>
    <person id="ped70" depart="68.06" type="ped_pedestrian">
        <walk from="1226067918" to="53563622#1"/>
    </person>
    <person id="ped71" depart="69.03" type="ped_pedestrian">
        <walk from="-903994411#1" to="-689453246#0"/>
    </person>
    <person id="ped72" depart="70.00" type="ped_pedestrian">
        <walk from="-23359947#2" to="54603233#2"/>
    </person>
    <person id="ped73" depart="70.97" type="ped_pedestrian">
        <walk from="-877845391" to="762039859#1"/>
    </person>
    <person id="ped74" depart="71.95" type="ped_pedestrian">
        <walk from="689452953#8" to="-23359729#2"/>
    </person>
    <person id="ped75" depart="72.92" type="ped_pedestrian">
        <walk from="-977464230" to="55895264#1"/>
    </person>
    <person id="ped76" depart="73.89" type="ped_pedestrian">
        <walk from="-671575663#1" to="-53789416#1"/>
    </person>
    <person id="ped77" depart="74.86" type="ped_pedestrian">
        <walk from="847871394#1" to="52870378#0"/>
    </person>
    <person id="ped78" depart="75.83" type="ped_pedestrian">
        <walk from="660349927#0" to="-58070819#1"/>
    </person>
    <person id="ped79" depart="76.81" type="ped_pedestrian">
        <walk from="-31610728#36" to="27776302#1"/>
    </person>
    <person id="ped80" depart="77.78" type="ped_pedestrian">
        <walk from="26231418" to="31610728#23"/>
    </person>
    <person id="ped81" depart="78.75" type="ped_pedestrian">
        <walk from="58885460#1" to="56143002#1"/>
    </person>
    <person id="ped82" depart="79.72" type="ped_pedestrian">
        <walk from="23359689#0" to="1227274439"/>
    </person>
    <person id="ped83" depart="80.70" type="ped_pedestrian">
        <walk from="689452978#5" to="1029478214#1"/>
    </person>
    <person id="ped84" depart="81.67" type="ped_pedestrian">
        <walk from="-58070810" to="31304899#8"/>
    </person>
    <person id="ped85" depart="82.64" type="ped_pedestrian">
        <walk from="26231121#6" to="107263455"/>
    </person>
    <person id="ped86" depart="83.61" type="ped_pedestrian">
        <walk from="1029478230#0" to="770523575#3"/>
    </person>
    <person id="ped87" depart="84.58" type="ped_pedestrian">
        <walk from="30644472#1" to="689452978#1"/>
    </person>
    <person id="ped88" depart="85.56" type="ped_pedestrian">
        <walk from="689416211" to="-55487296#3"/>
    </person>
    <person id="ped89" depart="86.53" type="ped_pedestrian">
        <walk from="327592528" to="-668997487#1"/>
    </person>
    <person id="ped90" depart="87.50" type="ped_pedestrian">
        <walk from="232180167#2" to="-153950038#1"/>
    </person>
    <person id="ped91" depart="88.47" type="ped_pedestrian">
        <walk from="209018103#1" to="973380173#1"/>
    </person>
    <person id="ped92" depart="89.45" type="ped_pedestrian">
        <walk from="105331832#2" to="62043813#1"/>
    </person>
    <person id="ped93" depart="90.42" type="ped_pedestrian">
        <walk from="314742466" to="26231152#3"/>
    </person>
    <person id="ped94" depart="91.39" type="ped_pedestrian">
        <walk from="880278078#1" to="996641643#1"/>
    </person>
    <person id="ped95" depart="92.36" type="ped_pedestrian">
        <walk from="-55064516#2" to="1091972830"/>
    </person>
    <person id="ped96" depart="93.33" type="ped_pedestrian">
        <walk from="437264986#23" to="58986956"/>
    </person>
    <person id="ped97" depart="94.31" type="ped_pedestrian">
        <walk from="-143725210#9" to="53294059#0"/>
    </person>
    <person id="ped98" depart="95.28" type="ped_pedestrian">
        <walk from="330355744#1" to="689416256"/>
    </person>
    <person id="ped99" depart="96.25" type="ped_pedestrian">
        <walk from="-25334373#1" to="-57678757"/>
    </person>
    <person id="ped100" depart="97.22" type="ped_pedestrian">
        <walk from="-965210310#2" to="-502132843#1"/>
    </person>
    <person id="ped101" depart="98.20" type="ped_pedestrian">
        <walk from="689457093" to="102939290#1"/>
    </person>
    <person id="ped102" depart="99.17" type="ped_pedestrian">
        <walk from="53727997#0" to="54188212#1"/>
    </person>
    <person id="ped103" depart="100.14" type="ped_pedestrian">
        <walk from="25715910#2" to="53293714#25"/>
    </person>
    <person id="ped104" depart="101.11" type="ped_pedestrian">
        <walk from="377447961#3" to="847549895#1"/>
    </person>
    <person id="ped105" depart="102.08" type="ped_pedestrian">
        <walk from="-62053975#2" to="58871604#1"/>
    </person>
    <person id="ped106" depart="103.06" type="ped_pedestrian">
        <walk from="-983104933#0" to="229988704#1"/>
    </person>
    <person id="ped107" depart="104.03" type="ped_pedestrian">
        <walk from="56036416#3" to="1095473640#2"/>
    </person>
    <person id="ped108" depart="105.00" type="ped_pedestrian">
        <walk from="1148082799" to="59023397#3"/>
    </person>
    <person id="ped109" depart="105.97" type="ped_pedestrian">
        <walk from="-23652069#2" to="314742515#0"/>
    </person>
    <person id="ped110" depart="106.95" type="ped_pedestrian">
        <walk from="997318786#0" to="996641643#8"/>
    </person>
    <person id="ped111" depart="107.92" type="ped_pedestrian">
        <walk from="-23652208#1" to="-662986564"/>
    </person>
    <person id="ped112" depart="108.89" type="ped_pedestrian">
        <walk from="689453260" to="689453235"/>
    </person>
    <person id="ped113" depart="109.86" type="ped_pedestrian">
        <walk from="17405683#8" to="-55094021#8"/>
    </person>
    <person id="ped114" depart="110.83" type="ped_pedestrian">
        <walk from="689416038" to="58109955#0"/>
    </person>
    <person id="ped115" depart="111.81" type="ped_pedestrian">
        <walk from="54063159#4" to="977469375"/>
    </person>
    <person id="ped116" depart="112.78" type="ped_pedestrian">
        <walk from="55603431#3" to="-104749653#1"/>
    </person>
    <person id="ped117" depart="113.75" type="ped_pedestrian">
        <walk from="685265868#0" to="1094238343#1"/>
    </person>
    <person id="ped118" depart="114.72" type="ped_pedestrian">
        <walk from="-53844871" to="-47087478#1"/>
    </person>
    <person id="ped119" depart="115.70" type="ped_pedestrian">
        <walk from="-37262677#6" to="481856882#2"/>
    </person>
    <person id="ped120" depart="116.67" type="ped_pedestrian">
        <walk from="1060350035#0" to="53832315"/>
    </person>
    <person id="ped121" depart="117.64" type="ped_pedestrian">
        <walk from="58872740#2" to="-62053966#0"/>
    </person>
    <person id="ped122" depart="118.61" type="ped_pedestrian">
        <walk from="54894315#0" to="105213309"/>
    </person>
    <person id="ped123" depart="119.58" type="ped_pedestrian">
        <walk from="32784694#4" to="76183688#2"/>
    </person>
    <person id="ped124" depart="120.56" type="ped_pedestrian">
        <walk from="689416200#10" to="-30644471#16"/>
    </person>
    <person id="ped125" depart="121.53" type="ped_pedestrian">
        <walk from="26231418" to="106096845#9"/>
    </person>
    <person id="ped126" depart="122.50" type="ped_pedestrian">
        <walk from="55064521#3" to="105212911#0"/>
    </person>
    <person id="ped127" depart="123.47" type="ped_pedestrian">
        <walk from="58979785#1" to="480838992#2"/>
    </person>
    <person id="ped128" depart="124.45" type="ped_pedestrian">
        <walk from="27505305#4" to="-105212905#2"/>
    </person>
    <person id="ped129" depart="125.42" type="ped_pedestrian">
        <walk from="-24212729#6" to="689453299"/>
    </person>
    <person id="ped130" depart="126.39" type="ped_pedestrian">
        <walk from="76142254" to="460200022#0"/>
    </person>
    <person id="ped131" depart="127.36" type="ped_pedestrian">
        <walk from="689416047#1" to="53293714#0"/>
    </person>
    <person id="ped132" depart="128.33" type="ped_pedestrian">
        <walk from="1111162070#1" to="72225304#0"/>
    </person>
    <person id="ped133" depart="129.31" type="ped_pedestrian">
        <walk from="633877806#1" to="689452967"/>
    </person>
    <person id="ped134" depart="130.28" type="ped_pedestrian">
        <walk from="713545107#1" to="-65067403#1"/>
    </person>
    <person id="ped135" depart="131.25" type="ped_pedestrian">
        <walk from="610157555#1" to="689453324"/>
    </person>
    <person id="ped136" depart="132.22" type="ped_pedestrian">
        <walk from="23564565#0" to="54224055#3"/>
    </person>
    <person id="ped137" depart="133.20" type="ped_pedestrian">
        <walk from="-55064514#1" to="773158237"/>
    </person>
    <person id="ped138" depart="134.17" type="ped_pedestrian">
        <walk from="689453008#2" to="965777069#1"/>
    </person>
    <person id="ped139" depart="135.14" type="ped_pedestrian">
        <walk from="671575663#2" to="689453268#1"/>
    </person>
    <person id="ped140" depart="136.11" type="ped_pedestrian">
        <walk from="-1093918400" to="58963219#1"/>
    </person>
    <person id="ped141" depart="137.08" type="ped_pedestrian">
        <walk from="1192783065" to="779115995#2"/>
    </person>
    <person id="ped142" depart="138.06" type="ped_pedestrian">
        <walk from="64377413#2" to="689453004#7"/>
    </person>
    <person id="ped143" depart="139.03" type="ped_pedestrian">
        <walk from="671575663#2" to="105332022#1"/>
    </person>
    <person id="ped144" depart="140.00" type="ped_pedestrian">
        <walk from="62155022" to="-377834141"/>
    </person>
    <person id="ped145" depart="140.97" type="ped_pedestrian">
        <walk from="689453104#0" to="689452945"/>
    </person>
    <person id="ped146" depart="141.95" type="ped_pedestrian">
        <walk from="-733242133" to="682313138#2"/>
    </person>
    <person id="ped147" depart="142.92" type="ped_pedestrian">
        <walk from="314742535#5" to="1102261990"/>
    </person>
    <person id="ped148" depart="143.89" type="ped_pedestrian">
        <walk from="633014447" to="-854875409#0"/>
    </person>
    <person id="ped149" depart="144.86" type="ped_pedestrian">
        <walk from="-1085453886" to="-58481574#0"/>
    </person>
    <person id="ped150" depart="145.84" type="ped_pedestrian">
        <walk from="1178140195#0" to="689453006#1"/>
    </person>
    <person id="ped151" depart="146.81" type="ped_pedestrian">
        <walk from="918293802" to="107363339"/>
    </person>
    <person id="ped152" depart="147.78" type="ped_pedestrian">
        <walk from="55108645#1" to="23029391#1"/>
    </person>
    <person id="ped153" depart="148.75" type="ped_pedestrian">
        <walk from="966268015" to="41211484#1"/>
    </person>
    <person id="ped154" depart="149.72" type="ped_pedestrian">
        <walk from="865189727#3" to="-47087478#0"/>
    </person>
    <person id="ped155" depart="150.70" type="ped_pedestrian">
        <walk from="93457070" to="-56658626#0"/>
    </person>
    <person id="ped156" depart="151.67" type="ped_pedestrian">
        <walk from="906438022#1" to="105331914#2"/>
    </person>
    <person id="ped157" depart="152.64" type="ped_pedestrian">
        <walk from="-38279367" to="28492646#4"/>
    </person>
    <person id="ped158" depart="153.61" type="ped_pedestrian">
        <walk from="58880121#2" to="1137370340"/>
    </person>
    <person id="ped159" depart="154.59" type="ped_pedestrian">
        <walk from="53839434#2" to="338761217#0"/>
    </person>
    <person id="ped160" depart="155.56" type="ped_pedestrian">
        <walk from="229976426" to="53136853#3"/>
    </person>
    <person id="ped161" depart="156.53" type="ped_pedestrian">
        <walk from="1037537604" to="58233227#0"/>
    </person>
    <person id="ped162" depart="157.50" type="ped_pedestrian">
        <walk from="41697865#1" to="58872750#1"/>
    </person>
    <person id="ped163" depart="158.47" type="ped_pedestrian">
        <walk from="153950038#2" to="-23353578#0"/>
    </person>
    <person id="ped164" depart="159.45" type="ped_pedestrian">
        <walk from="55751884#0" to="1182750758#1"/>
    </person>
    <person id="ped165" depart="160.42" type="ped_pedestrian">
        <walk from="1137370349" to="689416203#3"/>
    </person>
    <person id="ped166" depart="161.39" type="ped_pedestrian">
        <walk from="58873018#1" to="1095473643#2"/>
    </person>
    <person id="ped167" depart="162.36" type="ped_pedestrian">
        <walk from="23359683#0" to="1089327565#1"/>
    </person>
    <person id="ped168" depart="163.34" type="ped_pedestrian">
        <walk from="-53590781#1" to="25997550#2"/>
    </person>
    <person id="ped169" depart="164.31" type="ped_pedestrian">
        <walk from="869203108#1" to="56454093#3"/>
    </person>
    <person id="ped170" depart="165.28" type="ped_pedestrian">
        <walk from="750596886" to="54174958#1"/>
    </person>
    <person id="ped171" depart="166.25" type="ped_pedestrian">
        <walk from="-1004167230#0" to="1081863328#7"/>
    </person>
    <person id="ped172" depart="167.22" type="ped_pedestrian">
        <walk from="27774529#4" to="53265815"/>
    </person>
    <person id="ped173" depart="168.20" type="ped_pedestrian">
        <walk from="55603450#4" to="315740064"/>
    </person>
    <person id="ped174" depart="169.17" type="ped_pedestrian">
        <walk from="30644471#11" to="-668381124#1"/>
    </person>
    <person id="ped175" depart="170.14" type="ped_pedestrian">
        <walk from="317202785#5" to="740993473#1"/>
    </person>
    <person id="ped176" depart="171.11" type="ped_pedestrian">
        <walk from="633877805#1" to="-55751870#0"/>
    </person>
    <person id="ped177" depart="172.09" type="ped_pedestrian">
        <walk from="54617062#2" to="1202221237#2"/>
    </person>
    <person id="ped178" depart="173.06" type="ped_pedestrian">
        <walk from="686634086#1" to="59017422#0"/>
    </person>
    <person id="ped179" depart="174.03" type="ped_pedestrian">
        <walk from="56142986#2" to="-772742981#0"/>
    </person>
    <person id="ped180" depart="175.00" type="ped_pedestrian">
        <walk from="-60409635#2" to="-1091636634#0"/>
    </person>
    <person id="ped181" depart="175.97" type="ped_pedestrian">
        <walk from="1025147356" to="317807124#2"/>
    </person>
    <person id="ped182" depart="176.95" type="ped_pedestrian">
        <walk from="689416228" to="-23652105#1"/>
    </person>
    <person id="ped183" depart="177.92" type="ped_pedestrian">
        <walk from="25049384#7" to="54355142#1"/>
    </person>
    <person id="ped184" depart="178.89" type="ped_pedestrian">
        <walk from="-58872750#0" to="58070825#3"/>
    </person>
    <person id="ped185" depart="179.86" type="ped_pedestrian">
        <walk from="32904740" to="1017623038#1"/>
    </person>
    <person id="ped186" depart="180.84" type="ped_pedestrian">
        <walk from="55604889#1" to="-104366439#1"/>
    </person>
    <person id="ped187" depart="181.81" type="ped_pedestrian">
        <walk from="59017421#0" to="60495203#1"/>
    </person>
    <person id="ped188" depart="182.78" type="ped_pedestrian">
        <walk from="-37262677#31" to="26437422#4"/>
    </person>
    <person id="ped189" depart="183.75" type="ped_pedestrian">
        <walk from="-56181421#1" to="880278117#1"/>
    </person>
    <person id="ped190" depart="184.72" type="ped_pedestrian">
        <walk from="354297473#0" to="-1266940286"/>
    </person>
    <person id="ped191" depart="185.70" type="ped_pedestrian">
        <walk from="1029478221#1" to="689416205#1"/>
    </person>
    <person id="ped192" depart="186.67" type="ped_pedestrian">
        <walk from="314742490#0" to="64377397#4"/>
    </person>
    <person id="ped193" depart="187.64" type="ped_pedestrian">
        <walk from="53748849#11" to="874058061#1"/>
    </person>
    <person id="ped194" depart="188.61" type="ped_pedestrian">
        <walk from="689457105#3" to="54151989#1"/>
    </person>
    <person id="ped195" depart="189.59" type="ped_pedestrian">
        <walk from="58872749" to="330355757#1"/>
    </person>
    <person id="ped196" depart="190.56" type="ped_pedestrian">
        <walk from="689416005" to="466742385#11"/>
    </person>
    <person id="ped197" depart="191.53" type="ped_pedestrian">
        <walk from="698906931#0" to="58979803#3"/>
    </person>
    <person id="ped198" depart="192.50" type="ped_pedestrian">
        <walk from="317807122#1" to="104749644#1"/>
    </person>
    <person id="ped199" depart="193.47" type="ped_pedestrian">
        <walk from="54355104#1" to="1060399182#1"/>
    </person>
    <person id="ped200" depart="194.45" type="ped_pedestrian">
        <walk from="-24979080#0" to="1080664214"/>
    </person>
    <person id="ped201" depart="195.42" type="ped_pedestrian">
        <walk from="1059636051" to="1150317044#0"/>
    </person>
    <person id="ped202" depart="196.39" type="ped_pedestrian">
        <walk from="426457942" to="-54180591"/>
    </person>
    <person id="ped203" depart="197.36" type="ped_pedestrian">
        <walk from="-911885210" to="57887027#1"/>
    </person>
    <person id="ped204" depart="198.34" type="ped_pedestrian">
        <walk from="58112602#9" to="-19800092#6"/>
    </person>
    <person id="ped205" depart="199.31" type="ped_pedestrian">
        <walk from="23652104#0" to="437264986#6"/>
    </person>
    <person id="ped206" depart="200.28" type="ped_pedestrian">
        <walk from="25171322#2" to="-62224323#1"/>
    </person>
    <person id="ped207" depart="201.25" type="ped_pedestrian">
        <walk from="25991823#3" to="761726789#2"/>
    </person>
    <person id="ped208" depart="202.22" type="ped_pedestrian">
        <walk from="53293714#8" to="58070802#1"/>
    </person>
    <person id="ped209" depart="203.20" type="ped_pedestrian">
        <walk from="689452895" to="60139730#3"/>
    </person>
    <person id="ped210" depart="204.17" type="ped_pedestrian">
        <walk from="22329469#1" to="-104366445#2"/>
    </person>
    <person id="ped211" depart="205.14" type="ped_pedestrian">
        <walk from="129661361#3" to="59038379#2"/>
    </person>
    <person id="ped212" depart="206.11" type="ped_pedestrian">
        <walk from="689416261#1" to="877556347#0"/>
    </person>
    <person id="ped213" depart="207.09" type="ped_pedestrian">
        <walk from="25689995" to="58986947"/>
    </person>
    <person id="ped214" depart="208.06" type="ped_pedestrian">
        <walk from="460232057#4" to="53802327#1"/>
    </person>
    <person id="ped215" depart="209.03" type="ped_pedestrian">
        <walk from="-689457021#0" to="-689408194"/>
    </person>
    <person id="ped216" depart="210.00" type="ped_pedestrian">
        <walk from="290559997#0" to="-1118676625#1"/>
    </person>
    <person id="ped217" depart="210.97" type="ped_pedestrian">
        <walk from="120851495#1" to="56658609#0"/>
    </person>
    <person id="ped218" depart="211.95" type="ped_pedestrian">
        <walk from="23359947#3" to="-55450528"/>
    </person>
    <person id="ped219" depart="212.92" type="ped_pedestrian">
        <walk from="31610728#30" to="-53590797#0"/>
    </person>
    <person id="ped220" depart="213.89" type="ped_pedestrian">
        <walk from="54241846#3" to="-1102661183"/>
    </person>
    <person id="ped221" depart="214.86" type="ped_pedestrian">
        <walk from="229988692#0" to="513880388"/>
    </person>
    <person id="ped222" depart="215.84" type="ped_pedestrian">
        <walk from="-1103046333#0" to="55108685#0"/>
    </person>
    <person id="ped223" depart="216.81" type="ped_pedestrian">
        <walk from="-54153641#0" to="315455452"/>
    </person>
    <person id="ped224" depart="217.78" type="ped_pedestrian">
        <walk from="-1266940288" to="209018103#3"/>
    </person>
    <person id="ped225" depart="218.75" type="ped_pedestrian">
        <walk from="-659231656" to="1170948706"/>
    </person>
    <person id="ped226" depart="219.72" type="ped_pedestrian">
        <walk from="60117673#1" to="209018103#3"/>
    </person>
    <person id="ped227" depart="220.70" type="ped_pedestrian">
        <walk from="59023399" to="689416018#4"/>
    </person>
    <person id="ped228" depart="221.67" type="ped_pedestrian">
        <walk from="1035894286" to="-25715910#2"/>
    </person>
    <person id="ped229" depart="222.64" type="ped_pedestrian">
        <walk from="-1075560430#14" to="42161410#1"/>