<?xml version="1.0" encoding="UTF-8"?>

<!-- generated on 2024-06-05 11:32:20 by Eclipse SUMO netedit Version 1.18.0
-->

<routes xmlns:xsi="http://www.w3.org/2001/XMLSchema-instance" xsi:noNamespaceSchemaLocation="http://sumo.dlr.de/xsd/routes_file.xsd">
    <!-- VTypes -->
    <vType id="ped_pedestrian" vClass="pedestrian"/>
    <!-- Vehicles, persons and containers (sorted by depart) -->
    <person id="ped0" type="ped_pedestrian" depart="0.00">
        <walk edges="55094021#1 -55094021#0 55094042#1 55094042#0 23108042#0 1118676626#5 1118676626#4 1118676626#3 996641650#10 996641650#9 996641650#8 996641650#7 996641650#6 996641650#5 693723536#0 317202792#2 -377606227 -1025735341 1025735342#0 1025735342#1 -55751869#1 -55751870#0 1084121797 55751871#1 317202790 64377421#1 -47087478#6 -47087478#4 34238903 -47087484#0 -47075247 -1093918401#3 -1093918401#2"/>
    </person>
    <person id="ped1" type="ped_pedestrian" depart="0.97">
        <walk edges="1060400990#1 1060400990#0 1060400992#1 1060400993#3 1060400993#2 58112609#5 58112609#4 58112609#3 58112609#2 58112609#0 770523575#1 770523575#2 770523575#3 770523575#4 770523575#5 770523579#1 1054979000#1 1054979002#1 1054979001#2 1054979001#1 1054978994#1 -1137819390#0 -497903496#0 998065511#0 763631300#2 763631300#1 763602791#2 763602788 763602789 763602791#0 763602790 -763602813"/>
    </person>
    <person id="ped2" type="ped_pedestrian" depart="1.94">
        <walk edges="58963213#3 58979803#4 58979803#3 58979785#1 58979785#0 58922165#6 58922165#5 58922165#4 58922164#1 58922164#0 58922161#1 58922161#0 58887035#3 1137815774#1 58886677#1 58886678#1 1085399721#1 -53843262#0 -53843262#1 -53843259#0 -53843259#1 -53843259#2 -53843259#4 -30644475#2 -30644475#1 -513880385 513880367 513880369 -513880390 32807329#6 -32807329#7 -32807329#8 -32807329#9 55895823#5 55895823#6 -58109954#1 1134419862#0 1134419856#1 1134419857#0 1134419855 1134419854#2 1134419864#1 689453275#5 689453275#4 689453275#3 689453275#2 330355755#0 330355755#1 330355755#2 330355755#3 330355755#4 330355755#5 330355755#6 1150643065#1 1150643065#0 770525177#1 770525177#0 37194683#4 37194683#1 330355741 -22736006#3 -22736006#2 -22736006#1 22736006#0 22735987#3 22735987#2 22735987#1 129751966#1 -56434810#1 56434810#0"/>
    </person>
    <person id="ped3" type="ped_pedestrian" depart="2.92">
        <walk edges="689457119 689457105#1 689457105#2 689457105#3 689457106#1 880664809#0 58879273#2 58879273#1 58879273#0 40920730#1 40920730#2 58880120#3 58880120#2 58880120#1 58880120#0 58880115#0 58880115#1 58880115#2 58880115#3 58880115#4 58880115#5 58880115#6 58880115#7 58880115#8 58880115#9 58880115#13 58880115#14 58880115#15 58880115#16 58880115#17 58880115#18 58880115#19 58880121#0 58880121#1 58880121#2 58880121#3 1097862168#1 58877091#3 58877091#2 58877091#1 1097862167#1 1097862167#0 1060399179#1 848039670#5 848039670#4 848039670#3 848039670#2 848039670#0 58877110 953709260 58873629#2 58873629#1 58873629#0 58871601#3 58871601#2 58871601#1 58871601#0 317081916#0 317081916#1 317081910 317081924#0 317081924#1 317081924#2 1080664208#1 317081891#1 317081891#3 1080664188#1 1112289076#1 317081890#1 -25171322#1 -25171322#2 -25171322#3 -25171322#5 -25171322#6 -25171322#7 24889526#3 24889526#2 24889526#1 1024001507#0 1024001507#1 953025939 970313521#0 970313521#1 1081863336#1 1081863330#1 1081863330#0 1081863333#1 317084966#2 1081863331 970313522#0 -27774529#9 -27774529#8 -27774529#6 -27774529#5 -27774529#4 -27774529#3 -27774529#2 -27774529#1 -27774529#0"/>
    </person>
    <person id="ped4" type="ped_pedestrian" depart="3.89">
        <walk edges="26231121#7 26231121#6 26231121#5 26231121#4 26231121#3 26231121#2 26231121#1 26231121#0 41112870#10 26231418 163237901#2 41205436 -377447968#1 966301394#1 317202785#1 317202793#2 317202793#1 317202793#0 1084121772#1 1084121771 55751870#2 55751870#1 -977464219 -55751869#1 1025735342#1 1025735342#0 -1025735341 377606227 290703836#0 290703836#1 290703836#2 880278090#0 880278090#1 880278090#2 290582038#2 290581448 770065998 770066000#1 290703009#1 290703524#3 290703524#2 290703524#1 323734108#0 290702701#1 290702454#0 -1128334472#0"/>
    </person>
    <person id="ped5" type="ped_pedestrian" depart="4.86">
        <walk edges="-674801480 674801479#1 1060400988#1 1060400988#2 1060400990#0 1060400992#1 1060400993#3 1060400993#2 1060400993#1 58849737#10 58109951#6 58109951#5 58109951#4 58109951#3 58109950#3 58112592#8 58112593#1 58109949#2 58109949#1 58109949#0 770523580#0 770523583#2 770523583#1 58109956 437264986#23 437264986#24 330355713#0 330355713#1 966227864#1 770525172#0 770525172#1 770525172#2 770525172#3 770525172#4 330355714#2 330355714#3 1150643064#1 770525177#1 770525177#0 37194683#4 37194683#1 330355741 -22736006#3 -22736006#2 -22736006#1 22736006#0 22735987#3 22735987#2 22735987#1 129751966#1 -56434810#1 -56434810#0 959826272 959826271 53160348#1 1029478210#1 331396255#1"/>
    </person>
    <person id="ped6" type="ped_pedestrian" depart="5.83">
        <walk edges="-1101307436#0 58390737#3 58390737#0 1230749117#1 659361503#1 -659361504#1 -659361504#2 -659361504#3 -659361504#4 -1230728697#0 58109952#2 58109952#1 58109952#0 23971145#1 23971145#2 23971145#3 23971145#4 -689457022 -689457021#0 689453275#1 330355755#0 330355755#1 330355755#2 330355755#3 330355755#4 330355755#5 330355755#6 1150643065#1 1150643065#0 770525177#1 770525177#0 37194683#4 37194683#1 330355741 -22736006#3 -22736006#2 -22736006#1 22736006#0 22735987#3 22735987#2 22735987#1 129751966#1 -1075560430#3 1075560430#4 1075560430#5 1075560430#6 1075560430#7 1075560430#8 1075560430#12 1075560430#13 1075560430#14 1075560430#15 1075560433 689452884#7 689452884#6 689452884#5 689452884#4 689452884#3 689452884#2 689452884#1 689452884#0 689416017#1 689416016#1 689416015#1 689415992#1 689416033#0 689416033#1 689416033#2 689416033#3 689416033#4 689416033#5 689416034#1 689416048#1 689416049#1 689416046#1 689416044 153963756#1 -60409634#0"/>
    </person>
    <person id="ped7" type="ped_pedestrian" depart="6.81">
        <walk edges="55482894#4 55482894#5 55482894#8 55482894#9 -55482885#1 -55482885#0 -1227239236 -55487296#3 -155858520#1 55490205 38263955 631597391 155858535 631597389 230009630 918293803 631597392 -631597395#0 -631597395#1 631597393 -631597394 31310195#1 31310195#2 631597402#0 631597402#1 631597405 59025395#0 59025395#1 631597403#0 631597403#1 631597415#1 631597416#1 631597403#4 1228018536 229988695#1 317163323#0 642393782#0 642393782#5 23361342#2 54063159#7 -22329477#1 59023394#0 59023397#3 59023397#4 27519602 59014643 58987922#2 59017425#2 59017418#1 59017418#2 59017418#3 59017424 59017419#0 -53802870#0 53802870#1 -688245470#2 -688245470#3 1098898534#1 1167717005 4546222#3"/>
    </person>
    <person id="ped8" type="ped_pedestrian" depart="7.78">
        <walk edges="-689453247#0 685259335 689453247#1 689453246#1 689453246#2 689453246#3 685265868#0 685265868#1 1095473636 62645712#1 1095473637 966262725 1095473640#2 1095473640#1 317807124#7 317807124#6 317807124#5 317807124#4 317807124#3 317807124#2 317807124#1 1084086419#1 966306389#1 966306388#2 966306388#1 1084094668#1 317807122#5 317807122#4 317807122#3 317807122#2 317807122#1 1084094686#1 1084094686#0 1035606423#1 -112409005#0 -317807126#1 317807126#0 1035606419#1 966301394#1 317202785#1 317202793#2 317202793#1 317202793#0 1084121772#1 1084121771 55751870#2 55751870#1 -977464219 -55751869#1 55751869#2 53590772#5 -53590772#4 53590772#3"/>
    </person>
    <person id="ped9" type="ped_pedestrian" depart="8.75">
        <walk edges="671575647#1 671575647#0 17426865#2 671575650 17408104#9 17408104#10 17408104#11 54030050#0 54030050#1 17408104#2 463436503#0 53293714#19 463436502#1 31854421#0 62645711#0 53293433#0 53293714#9 53293714#8 34519765#1 34519765#2 395334152#4 395334152#3 395334152#2 395334152#1 395334152#0 450279577#2 182194551#8 182194551#7 182194551#6 182194551#5 182194551#4 182194551#3 182194551#2 182194551#1 182194551#0 41399205#2 -53353064#3 -53353064#2 19800092#7 55489831#10 55489831#11 55489831#1 55489831#2 635361637#7 635361637#6 635361637#4 635361637#3 635361637#1 635361637#0 766452894#7 766452894#6 766452894#5 766452894#4 766452894#3 766452894#2 766452894#1 -104695403#3 -104695398#0 -104695403#1"/>
    </person>
    <person id="ped10" type="ped_pedestrian" depart="9.72">
        <walk edges="1227274455 24979080#3 -1227274445#0 1227274443#2 772742984#1 772742984#2 772742984#3 1102258306 -768791054#1 768791056#0 768791056#1 768735807 1102261984#1 1102261990 768735808#0 768735808#1 697846183#0 -34519301#2 768796769#10 768796769#9 768796769#8 768796769#5 768796769#4 768796769#3 768796769#2 768796769#1 768796769#0 768796771#0 -55064518 -55064521#1"/>
    </person>
    <person id="ped11" type="ped_pedestrian" depart="10.69">
        <walk edges="880278078#0 880278080 880278078#1 880278078#2 290584516#0 290584516#1 290584516#2 93457067#1 93457068 859025986#0 859025986#1 -120446831 377447967#2 377447964 1084086420#1 1084086420#2 1215209960 1215209962#1"/>
    </person>
    <person id="ped12" type="ped_pedestrian" depart="11.67">
        <walk edges="-30644471#8 -30644471#7 -30644471#6 -30644471#5 -30644471#4 -30644470#5 -1062969455 865189740#0 865189739#1 865189739#0 1134419853#0 1134419867 23971145#0 23971145#1 23971145#2 23971145#3 23971145#4 23971145#5 23971145#6 23971145#7 23971145#8 770523581#0 770523581#1 770523580#0 770523580#1 770523580#2 770523580#3 770523580#4 770523580#5 770523580#6 770523580#7 58849737#21 689457026#1 689457028#1 437264986#8 437264986#7 437264986#6 437264986#5 437264986#4 437264986#3 437264986#1 437264986#0 1054979002#0 1054979002#1 1054979001#2 1054979001#1 1054978994#1 -1137819390#0 -497903496#0 -1272010771#1 -24250309#0 965980353#12 -24250309#2 -24250309#3 72493074 -1274161959#1 -89984816 1202221238#1 129751965#0 689415976#0 689415976#1 689415976#2 689415976#3 689415976#4 689415976#5 689415976#6 689415975#0 143725210#14 143725210#13 143725210#12 -143725210#11 -143725210#9 -143725210#8 -143725210#7 -143725210#6 -143725210#5 -143725210#4 -143725210#3 -143725210#2 -143725210#1 -143725210#0 -946101316#12 -946101316#11 -946101316#9 -946101316#8 -946101316#7 -31610728#36 -31610728#35 -31610728#34 -31610728#33"/>
    </person>
    <person id="ped13" type="ped_pedestrian" depart="12.64">
        <walk edges="689416200#9 689416200#8 689416200#7 689416200#6 689416200#5 689416200#4 689416200#3 689416200#2 -25997550#1 689416202#1 689416203#0 689416203#1 689416203#2 689416203#3 689416203#4 689416203#5 689416203#6 689416205#0 689416205#1 689415957#1 689415958 129751965#13 130109242#0 -56722420#2 -56722420#3 -41414188#1 -41414188#3 -27464631#2 965980353#7 -27464631#6 -27464631#7 -1272011532 1054055054#1 689457038#1 689457038#2 689457038#3 1054055038#0 1054055040#1 1054055038#1 992526546 992526545#2 992526545#1 313537749#2 313537749#1 313537749#0 32933273#1 1054979000#1 770523579#1 770523575#5 770523575#4 770523575#3 770523575#2 770523575#1 58112609#0 58112609#2 58112609#3 58112609#4 58112609#5 58112609#6 58109952#8 58112609#9 58112609#10 58112609#11 58112609#12 -103014218 58112609#15 58112609#16 58849734#0 58849734#1 133952940 58877102#4 740993473#1 740993473#0 30644569#0 30644569#1 740984458 28222694#1 39300891#3 28107783#0 28107783#1 848039669#4 848039669#3 53803649#0"/>
    </person>
    <person id="ped14" type="ped_pedestrian" depart="13.61">
        <walk edges="660335472#0 -660335474 107073709#2 -23651985 64377413#1 64377413#2 64377413#3 689453129#1 966304634 317202787#1 1084121807 966304630#1 966304629#1 966304626#1 966304625#1 966304625#0 689453114#0 689453114#1 689453114#2 689453114#3 689453114#4 689453114#5 689453114#6 689453114#7 689453114#8 689453114#9 689453114#10 966301393#1 -966301396 966301394#1 1035606419#1 317807126#0 -317807126#1 -112409005#0 1035606423#1 1084094686#0 1084094686#1 317807122#1 317807122#2 317807122#3 317807122#4 317807122#5 1084094668#1 966306388#1 966306388#2 966306389#1 1084086419#1 317807124#1 317807124#2 317807124#3 317807124#4 317807124#5 317807124#6 317807124#7 1095473640#1 1095473640#2 966262725 1095473637 62645712#1 1095473636 685265868#1 685265868#0 689453246#3 689453246#2 689453246#1 689453247#1 685259335 -689453088#6 -689453088#5 -689453088#4 -689453088#3 689453088#2 58885464#8 58885464#7 58885464#6"/>
    </person>
    <person id="ped15" type="ped_pedestrian" depart="14.58">
        <walk edges="41211484#1 -41211484#0 41215071#0 30134195 -1084094695#2 688496855 317807122#1 1084094670#1 1084094669 25049384#1 25049384#2 55760604#0 -418380493#0 -418380493#1 418380493#2 -418380493#3 1154760037 698906932#1 699052427#3 713545107#1 954923375"/>
    </person>
    <person id="ped16" type="ped_pedestrian" depart="15.56">
        <walk edges="209018100 209018103#0 209018103#1 209018103#2 209018103#3 873010522 315740069 315740064 873110941#0 209002337#1 209002337#0 -1075560428#4 1075560428#3 -1075560428#2 -1075560428#1 -1075560428#0 689416260#0 689416260#1 689416260#2 689416260#3 689416260#4 689416260#5 689416260#6 689416261#1 689416271#8 689416271#7 689416271#6 689416271#5 689416271#4 689416271#3 689416271#2 689416271#1 689416269 -25424999#0 -24250310 -1274163477 24250309#3 24250309#2 24250309#1 24250309#0 1272010771#1 497903496#0 497903496#1 -60213816#19 -60213816#18 -60213816#17 -60213816#16 -60213816#15 -60213816#14 -60213816#11 -60213816#10 -60213816#9 -60213816#8 -60213816#5 -60213816#4 689457156#1 689457157#1 689457099#4 689457099#3 689457099#2 689457099#1 58109946#19 689457104#1 689457105#1 689457105#2 689457105#3 689457106#1 880664809#0 58880114#0 58880114#1 58880114#2 880664812 58880775#0 880664807 480838993#4"/>
    </person>
    <person id="ped17" type="ped_pedestrian" depart="16.53">
        <walk edges="689452978#5 689452978#6 689452978#7 689452978#8 689452978#9 689452978#10 689453006#1 689453004#1 910534885#1 910534885#0 1084094693#2 689453008#0 689453008#1 689453008#2 689453008#3 689453008#4 689453008#5 689453008#6 689453008#7 689453008#8 -23652165#1 1084094668#1 966306388#1 966306388#2 966306389#1 689453211#1 689453214#0 377447965 1084086420#1 377447964 377447967#2 -120446831 859025986#1 859025986#0 93457068 56926850 56926852#1 56926852#0 230009638#0 230009639#1 230009639#0 232185013#3 232185013#2 23028927#8 -23028927#6 -23028927#5 55603436#0 55603431#3 55603431#2 -23028927#2 230009637#1 59038952#4 59038952#3 -398365534#2 59023405#3 59023405#2 59023405#1 55603438#1 -229987048#0 229987048#1 -1158285234#0 -53821274#0 -1158285233 691520899#1 229987035#0 229987035#1 229987035#2 229987035#3 229987035#4 1158231664#1 53137623#1"/>
    </person>
    <person id="ped18" type="ped_pedestrian" depart="17.50">
        <walk edges="58112593#0 58109950#2 58109950#3 58109951#3 58109951#4 58109951#5 58109951#6 58849737#10 58849737#9 58849737#8 58849737#7 58849737#6 58849737#5 58849737#2 58849737#1 -1230749154#0"/>
    </person>
    <person id="ped19" type="ped_pedestrian" depart="18.47">
        <walk edges="-863849577 -55379538#1 996641650#10 996641650#9 996641650#8 996641650#7 996641650#6 996641650#5 693723536#0 317202792#2 -377606227 -1025735341 1025735342#0 1025735342#1 -55751869#1 -977464219 55751870#1 966059477 163509349 55751893 966059485 966059484 966059483 966059482#1 966059482#0 966059481 966059480 966059479 966059478 -37262677#10 -37262677#11 -37262677#12 -37262677#13 -37262677#14 -37262677#15 -37262677#17 -37262677#18 -37262677#20 -37262677#21 -37262677#22 -37262677#24 -37262677#25 -37262677#27 -37262677#28 -37262677#29 -37262677#30 -37262677#31 -37262677#32 -37262677#33 -37262677#34 -37262679#0 317202785#19 317202785#20 689453136#0 689453136#1 64377425#0 64377425#1 64377397#1 64377397#2 64377397#3 317202797#3 317202797#2 317202797#1 317202797#0 64377429#7 64377429#6 64377429#5 317202782#2 108224574#2"/>
    </person>
    <person id="ped20" type="ped_pedestrian" depart="19.44">
        <walk edges="-25171322#8 -24889526#3 -24889526#2 -24889526#1 -58966328#0 58966331#2 58966331#3 58966331#4 58966329 58964498#3 58964498#2 58964498#1 1075831124#2 1075831123 58964499#1 1075831122#1 58964500#1 317081867#0 317081867#1 317081867#2 317081867#3 317081867#4 317081867#5 317081867#6 317081867#7 317081867#8 317081867#9 317081867#10 -37519805#0 -230415530#3 -230415530#2 -230415530#1 56181421#0 -56181644#0 -56181644#1 56181644#2 -56182054#1 -1265391651 -934054182#0 -934054182#2"/>
    </person>
    <person id="ped21" type="ped_pedestrian" depart="20.42">
        <walk edges="-32903764#1 32903764#1 32903764#0 56126508#2 56126508#1 72493064#3 72493064#2 72493064#1 72493064#0 72493074 -32904739 -72493046#0 689416263#4 689416263#3 689416263#2 689416263#1 689416263#0 689416252#0 689416252#1 689416253#1 689416253#2 689416253#3 689416253#4 689416253#5 689416253#6 689416253#7 689416253#8 1075560429#1 1075560440 1075560430#14 1075560430#13 1075560430#12 1075560430#8 1075560430#7 1075560430#6 1075560430#5 1075560430#4 1075560430#3 -56434810#1 -56434810#0 959826272 959826271 53160348#1 1029478210#1 331396255#1 771368475#2 771368475#1 1052181112#1 1052181112#0 1052181111#1 107073705#1"/>
    </person>
    <person id="ped22" type="ped_pedestrian" depart="21.39">
        <walk edges="55064498#1 55064511#1 229987020#4 229987020#3 229987020#2 768798110#8 229987058#2 768798110#6 768798110#5 768798110#4 768798110#3 768798110#2 768798110#1 768798110#0 229987024#0 229987024#1 880278117#0 1232837783 1232837780#1 229987040#0 290584075#0 229987040#1 880278083#1 880278083#3 290586811#1 229987047#4 229987047#2 229987047#1 64377418#2 93457068 859025986#0 859025986#1 859025986#2 859025986#3 377447963#1 1095473643#1 1095473643#2 1095473644 1095473642#1 1095473642#2 317807124#7 317807124#6 689453031#0 689453031#1 689453031#2 689453023#6 689453036 689453034#8 23897655#1 23897655#4 23897655#6 23897655#7 23897655#8 23897655#9 23897655#10 153955571#1 153955571#2 153955571#3 153955571#5"/>
    </person>
    <person id="ped23" type="ped_pedestrian" depart="22.36">
        <walk edges="17408104#11 17408104#12 17408104#13 191939631 17427674#2 1070703598 -209613445#2 -209613445#1 53833042#2 28094533#12 1036128973#0 1036128973#1 1036128972#1 1036128970 58885460#1 58885463#0 55896541#0 55896541#1 55896541#2 55896541#3 1134419857#1 1134419856#1 1134419857#0 1134419855 1134419854#2 1134419864#1 689453275#5 689453275#4 689453275#3 689453275#2 330355755#0 330355755#1 330355755#2 330355755#3 330355755#4 330355755#5 330355755#6 1150643065#1 1150643065#0 770525177#1 770525177#0 37194683#4 37194683#1 330355741 -22736006#3 -22736006#2 -22736006#1 -22736006#0 -22736007#5 -64625169#0 -64625169#1"/>
    </person>
    <person id="ped24" type="ped_pedestrian" depart="23.33">
        <walk edges="105332059#0 -105332059#2 -105331923 1003178507#1 1089244880#1 1003178508#1 1089244880#0 58986961#2 58986961#1 58986961#0 58986953#1 1158218892#1 1158218891 764387356#1 764387356#2 764387357#1 764387359#1 58987922#1 58987922#2 59014643 27519602 -953023603 59023403#0 59023403#3 59023399 763760408#0 55603440 55603438#1 -229987048#0 1227274439 -772742985 966274313#0 1227274440 1227274441#1 1227274442#1 1227274443#1 1227274443#2 772742984#1 688237596#1 768126131#1 768126130#1 768126128#1 768126127 768126126#1 768126125 688244113#1 688244113#2 688244113#3 1101894141#1 -854875409#0 854875409#1"/>
    </person>
    <person id="ped26" type="ped_pedestrian" depart="25.28">
        <walk edges="-55758542#2 -55758542#1 966059940#2 107363332#0 107363332#1 163509347 317202785#10 317202785#9 317202785#8 317202785#7 317202785#6 317202785#5 317202785#4 317202785#3 317202785#2 966301394#1 1035606419#1 317807126#0 -317807126#1 -112409005#0 1035606423#1 1084094686#0 1084094686#1 317807122#1 317807122#2 317807122#3 317807122#4 317807122#5 1084094668#1 966306388#1 966306388#2 966306389#1 1084086419#1 317807124#1 317807124#2 317807124#3 317807124#4 317807124#5 317807124#6 317807124#7 1095473640#1 1095473640#2 966262725 1095473637 62645712#1 1095473636 685265868#1 685265868#0 689453246#3 689453246#2 689453246#1 689453247#1 685259335 -689453088#6 -689453088#5 -689453088#4 -689453088#3 689453088#2 689453085#1 -685272435#1 689453086#0 689453083#2 58885462"/>
    </person>
    <person id="ped27" type="ped_pedestrian" depart="26.25">
        <walk edges="-55143539#0 996641652#0 996641651 693723536#0 693723536#1 -1169599240 -629487721 290703836#0 290703836#1 290703836#2 290703836#3 -27776382#3 -27776382#2 -27776382#1 772742980 -772742981#2 -772742981#1 -772742981#0 -179325099#3 -179325099#1 -179325099#0 27776381#0 -24979080#5 59041626#0 1227274440 966274313#0 -772742985 1227274439 -229987048#0 55603438#1 59023402#1 763760416 209185710#0 209185710#1"/>
    </person>
    <person id="ped28" type="ped_pedestrian" depart="27.22">
        <walk edges="984541814#11 984541814#12 984541814#13 984541814#14 984541814#15 -25049296#3 -143725210#5 -143725210#6 -143725210#7 -143725210#8 -143725210#9 -143725210#11 -143725210#12 -143725210#13 -143725210#14 689415985 689408239#0 689408239#1 689408239#2 689408239#3 689408239#4 689408239#5 689408239#6 689415991#1 689452884#0 689452884#1 689452884#2 689452884#3 689452884#4 689452884#5 689452884#6 689452884#7 1075560433 1075560430#15 1075560430#14 1075560430#13 1075560430#12 1075560430#8 1075560430#7 1075560430#6 1075560430#5 1075560430#4 1075560430#3 129751964 689452956#6 689452956#5 689452956#4 689452956#3 689452956#2 689452956#1 689452955#1 -445457970#0 30752666 41112865#1 26231537 26231121#7 26231121#6 26231121#5 26231121#4 26231121#3 26231121#2 26231121#1 26231121#0 41112870#10 26231418 163237901#2 41205436 -377447968#1 966301394#1 317202785#1 317202793#2 317202793#1 317202793#0 1084121772#1 1084121771 55751870#2 55751870#1 -977464219 -55751869#1 1025735342#1 1025735342#0 -1025735341 -377606227 317202792#2 693723536#0 996641650#5 996641650#6 996641650#7 996641650#8 996641650#9 996641650#10 1118676626#3 1118676626#4 1118676626#5 23108042#0 55094042#0 55094042#1 -55094021#0 -55094021#1 996641616#0 996641615#2 -907326306#1 -55094021#8 55094021#7"/>
    </person>
    <person id="ped29" type="ped_pedestrian" depart="28.19">
        <walk edges="496935180 87968207#1 87968207#0 61974672#1 32497183 230009635 59038957#2 59038957#1 59038957#0 632566051#0 632566051#1 -19800132#0 -19800132#1 -19800132#2 19800131 -19800092#0 -19800092#1 -19800092#2 -19800092#3 -19800092#4 -19800092#5 -19800092#6 -19800092#7 -53353064#2 -53353064#3 41399205#2 41399205#1 41399205#0 41399204 23361233#1 23361233#0 22876083#9 23359714#1 23359714#0 -23359713#5 -23359729#0 503324958 59213166#1 59213166#0 23359689#2 23359689#1 23359689#0 42161410#0 -55450528 58885464#1 1036128967#1 1036128967#0 58885463#0 58885463#1 689453255#1 689453258#1 55895823#1 55895823#2 55895823#3 55895263#1 55895264#2 55895264#1 55895264#0 -32807329#8 -30644471#1 -30644471#2 -30644471#3 -30644470#5 1230749116#0 1230749116#2 1230749116#1 1230749117#1 58390737#0 58390737#3 -1014611320#0 1014611320#1 58112602#2 58112602#3 58112602#4 58112602#5 58112602#6 58112602#7 -45418136 54154332 58873637 58873628#0 58873628#1 58873628#2 53803653#0 -53803653#0 58873628#3 58873628#4 953709260 58873636#3 58873636#2 58873636#1 58873636#0 953709263 58872744#0 58872744#1 58872744#2 30861376#5 56985891#0 56985891#1 56985891#2"/>
    </person>
    <person id="ped31" type="ped_pedestrian" depart="30.14">
        <walk edges="-880930214#0 880930214#1 740993473#0 30644569#0 30644569#1 740984458 28222694#1 39300891#3 28107783#0 28107783#1 848039669#4 848039669#3 848039669#2 848039669#1 28135270#1 58873628#4 58873629#2 58873629#1 58873629#0 58871601#3 58871601#2 58871601#1 58871601#0 58871602#0 1054062113 1054062112 1054062110#1 1054062111#1 -880930235#1 -1142009576"/>
    </person>
    <person id="ped32" type="ped_pedestrian" depart="31.11">
        <walk edges="1142004748 26437422#3 437264986#9 437264986#8 437264986#7 437264986#6 437264986#5 437264986#4 437264986#3 437264986#1 437264986#0 1054979002#0 1054979002#1 1054979001#2 1054979001#1 1054978994#1 -60213816#19 992526546 1054055038#1"/>
    </person>
    <person id="ped33" type="ped_pedestrian" depart="32.08">
        <walk edges="689453172 -55751897#1 -55751897#0 37262677#2 1084121772#1 317202793#0 317202793#1 317202793#2 317202785#1 966301394#1 -377447968#1 41205436 163237901#2 26231418 41112870#10 26231121#0 26231121#1 26231121#2 26231121#3 26231121#4 26231121#5 26231121#6 26231121#7 26231537 41112865#1 30752666 -445457970#0 689452955#1 689452956#1 689452956#2 689452956#3 689452956#4 689452956#5 689452956#6 129751964 1075560430#3 1075560430#4 1075560430#5 1075560430#6 1075560430#7 1075560430#8 1075560430#12 1075560430#13 1075560430#14 1075560440 1075560429#1 689416253#8 689416253#7 689416253#6 689416253#5 689416253#4 689416253#3 689416253#2 689416253#1 689416252#1 689416252#0 689416263#0 689416263#1 689416263#2 689416263#3 689416263#4 -72493046#0 -32904739 72493074 72493064#0 26536910#0 26536910#1 23341784#1 -41178891#2 -24250313#0 24250313#1 24250313#2 1137820424"/>
    </person>
    <person id="ped34" type="ped_pedestrian" depart="33.06">
        <walk edges="55604195#8 55604195#1 31310193#0 31310193#1 918293803 631597392 -631597395#0 -631597395#1 631597393 -631597394 31310195#1 31310195#2 631597402#0 631597402#1 631597405 59025395#0 -22329472#6 -54265995 54265957#3 54265987#1 -54265987#0 631597409#1 229988702#0"/>
    </person>
    <person id="ped35" type="ped_pedestrian" depart="34.03">
        <walk edges="768126161#1 768126157 768791052#2 229987023#1 229987023#2 229987023#3 768750300 27776293 768750299#1 918293802 230009623#0 230009623#1 230009623#2 230009620#4 230009620#3 230009623#4 230009623#5 230009623#6 27776295#0 27776295#1 27776297 31310194#1 31310194#0 38263955 631597391 155858535 631597389 55604195#4 973345249#0 1231257419#1 766699799#1 55604889#1 631603163 631603166#1 763760491#1 229988698 182194551#7 450279577#1 314742517#2 314742517#1 314742519#1"/>
    </person>
    <person id="ped37" type="ped_pedestrian" depart="35.97">
        <walk edges="502124890 -1274163477 24250309#3 24250309#2 24250309#1 24250309#0 1272010771#1 -497903496#0 -1137819390#0 1054978994#1 1054979001#1 1054979001#2 1054979002#1 1054979002#0 437264986#0 437264986#1 437264986#3 437264986#4 437264986#5 437264986#6 437264986#7 437264986#8 689457028#1 689457026#1 58849737#21 770523580#7 770523580#6 770523580#5 770523580#4 770523580#3 770523580#2 770523580#1 770523580#0 770523581#1 770523581#0 23971145#8 23971145#7 23971145#6 23971145#5 23971145#4 23971145#3 23971145#2 23971145#1 23971145#0 1134419867 1134419853#0 865189739#0 865189739#1 865189740#0 -1062969455 -30644470#5 -30644471#4 -30644471#5 1169104581 -30644471#9 -671575663#2 -671575663#1 -30644476 -30644474#0 -53843259#4 -53843259#2 -53843259#1 -53843259#0 -53843262#1 -53843262#0 1085399721#1 58886678#1 58886677#1 1137815774#1 58887035#3 58922161#0 58922161#1 58979811#1 317163325#1 58979820#0 58979820#1 58979820#2 58979820#3 58979820#4 55675402#0 55675402#1 55675404 -1112284385#0 58963224#2 23359773#1 37519796#2 37519796#1 23360047#1 23360047#0 1041523194 -58979786#0 953023600 58979825#1 58979825#0 58979822 1075831129#2 1075831129#1 1075831128#1 1075831129#0 58964497#3 58964497#2 58964497#1 58964504#1 1075831135#1 963128690#6 963128690#5 963128690#4 963128690#3 963128690#2 105212926#0"/>
    </person>
    <person id="ped38" type="ped_pedestrian" depart="36.94">
        <walk edges="53353064#2 19800092#7 55489831#10 55489831#11 635361639#1 635361639#0 377447961#6 377447961#5 377447961#4 377447961#3 377447961#2 377447961#1 377447961#0 -113700207#0 64377418#2 229987047#1 699052426"/>
    </person>
    <person id="ped39" type="ped_pedestrian" depart="37.92">
        <walk edges="23028927#6 -23028927#5 55603436#0 55603431#3 55603431#2 -23028927#2 230009637#1 59038952#4 59038952#3 -398365534#2 59023405#3 59023405#2 59023405#1 55603440 763760408#0 59023399 59023403#3 59023403#0 -953023603 27519602 59014643 58987922#2 59017425#2 59017418#1 59017418#2 59017418#3 59017424 59017419#0 -53802870#0 53802870#1 -688245470#2"/>
    </person>
    <person id="ped40" type="ped_pedestrian" depart="38.89">
        <walk edges="-30016043#0 -23353578#0 317202782#1 317202782#2 64377429#5 64377429#6 64377429#7 317202797#0 317202797#1 317202797#2 317202797#3 64377397#3 64377397#2 64377397#1 64377425#1 64377425#0 689453136#1 689453136#0 317202785#20 317202785#19 317202785#18 317202785#17 317202785#16 317202785#15 317202785#14 317202785#13 317202785#12 317202785#11 317202785#10 317202785#9 317202785#8 317202785#7 317202785#6 317202785#5 317202785#4 317202785#3 317202785#2 317202785#1 1084121785#1 1084121783#1 1084121784 -112409007#0 317807125#3 317807125#2 317807125#1 -1084094671 -25049384#1 -25049384#2 -25049384#5 -1247512897"/>
    </person>
    <person id="ped41" type="ped_pedestrian" depart="39.86">
        <walk edges="-398365534#0 59023405#3 59023405#2 59023405#1 59023402#1 763760416 209185710#0 59023394#2 229988704#1 59023394#0 58986959#0 58986959#1 58986959#2 -764387348#0 -764387350#0 -58986958#0 58986962#1 58986962#0 58979799#1 58979799#0 58979824 633811816#0 633811816#1 58979791#2 58979791#1 54355117#1 -54355100#1 54355118#2"/>
    </person>
    <person id="ped42" type="ped_pedestrian" depart="40.83">