<?xml version="1.0" encoding="UTF-8"?>

<!-- generated on 2024-04-21 13:04:25.998422 by osmWebWizard.py UNKNOWN
<configuration>
    <fringe-factor value="5"/>
    <fringe-start-attributes value="departSpeed=&quot;max&quot;"/>
    <insertion-density value="8.0"/>
    <min-distance.fringe value="10.0"/>
    <min-distance value="600.0"/>
    <net-file value="/Users/yasser/2024-04-21-13-03-17/osm.net.xml.gz"/>
    <remove-loops value="True"/>
    <route-file value="/Users/yasser/2024-04-21-13-03-17/osm.truck.rou.xml"/>
    <trip-attributes value="departLane=&quot;best&quot;"/>
    <output-trip-file value="/Users/yasser/2024-04-21-13-03-17/osm.truck.trips.xml"/>
    <prefix value="truck"/>
    <validate value="True"/>
    <vclass value="truck"/>
    <vehicle-class value="truck"/>
    <via-edge-types value="highway.motorway,highway.motorway_link,highway.trunk_link,highway.primary_link,highway.secondary_link,highway.tertiary_link"/>
</configuration>
-->

<!-- generated on 2024-04-21 13:04:25 by Eclipse SUMO duarouter Version 1.18.0
<configuration xmlns:xsi="http://www.w3.org/2001/XMLSchema-instance" xsi:noNamespaceSchemaLocation="http://sumo.dlr.de/xsd/duarouterConfiguration.xsd">

    <input>
        <net-file value="/Users/yasser/2024-04-21-13-03-17/osm.net.xml.gz"/>
        <route-files value="/Users/yasser/2024-04-21-13-03-17/osm.truck.trips.xml"/>
    </input>

    <output>
        <output-file value="/Users/yasser/2024-04-21-13-03-17/osm.truck.trips.xml.tmp"/>
        <alternatives-output value="NUL"/>
        <write-trips value="true"/>
    </output>

    <processing>
        <remove-loops value="true"/>
    </processing>

    <time>
        <begin value="0.0"/>
        <end value="3600.0"/>
    </time>

    <report>
        <no-warnings value="true"/>
        <ignore-errors value="true"/>
        <no-step-log value="true"/>
    </report>

</configuration>
-->

<routes xmlns:xsi="http://www.w3.org/2001/XMLSchema-instance" xsi:noNamespaceSchemaLocation="http://sumo.dlr.de/xsd/routes_file.xsd">
    <vType id="truck_truck" vClass="truck"/>
    <trip id="truck0" type="truck_truck" depart="0.00" departLane="best" from="25718555#10" to="-1268830579"/>
    <trip id="truck1" type="truck_truck" depart="2.15" departLane="best" departSpeed="max" from="-383673950#3" to="-31610728#14"/>
    <trip id="truck2" type="truck_truck" depart="4.31" departLane="best" from="318129577#0" to="-27774100#4"/>
    <trip id="truck3" type="truck_truck" depart="6.46" departLane="best" from="58871869#2" to="-23027887#2"/>
    <trip id="truck4" type="truck_truck" depart="8.62" departLane="best" from="1183303174#2" to="1271541378#1"/>
    <trip id="truck6" type="truck_truck" depart="12.93" departLane="best" from="-1271541377#0" to="-27775647#0"/>
    <trip id="truck7" type="truck_truck" depart="15.08" departLane="best" from="-30134026#6" to="24212729#3"/>
    <trip id="truck8" type="truck_truck" depart="17.24" departLane="best" from="41850466#1" to="1101220712#2"/>
    <trip id="truck9" type="truck_truck" depart="19.39" departLane="best" from="41222346#9" to="29052564#2"/>
    <trip id="truck10" type="truck_truck" depart="21.55" departLane="best" from="60213816#18" to="-25334373#1"/>
    <trip id="truck11" type="truck_truck" depart="23.70" departLane="best" from="770074670#5" to="-629487708#1"/>
    <trip id="truck12" type="truck_truck" depart="25.86" departLane="best" from="5084494#2" to="24974461#1"/>
    <trip id="truck13" type="truck_truck" depart="28.01" departLane="best" from="23108058#10" to="880278093#2"/>
    <trip id="truck14" type="truck_truck" depart="30.17" departLane="best" from="-946101318#0" to="23361405#2"/>
    <trip id="truck15" type="truck_truck" depart="32.32" departLane="best" from="-53751544#5" to="23717778"/>
    <trip id="truck16" type="truck_truck" depart="34.47" departLane="best" departSpeed="max" from="30133975#0" to="-141105517#2"/>
    <trip id="truck17" type="truck_truck" depart="36.63" departLane="best" from="-23359655#0" to="-41211487#1"/>
    <trip id="truck18" type="truck_truck" depart="38.78" departLane="best" from="25715906#4" to="880930230"/>
    <trip id="truck19" type="truck_truck" depart="40.94" departLane="best" from="-89984814#3" to="-29053478#1"/>
    <trip id="truck20" type="truck_truck" depart="43.09" departLane="best" from="-37262677#28" to="650780418#2"/>
    <trip id="truck21" type="truck_truck" depart="45.25" departLane="best" from="-25991959#4" to="-25049058#0"/>
    <trip id="truck22" type="truck_truck" depart="47.40" departLane="best" from="-25715910#1" to="316256626#7"/>
    <trip id="truck23" type="truck_truck" depart="49.56" departLane="best" from="25425034#0" to="1002042617#3"/>
    <trip id="truck24" type="truck_truck" depart="51.71" departLane="best" from="930410027#2" to="25718555#16"/>
    <trip id="truck25" type="truck_truck" depart="53.87" departLane="best" from="23361405#2" to="27788807#1"/>
    <trip id="truck26" type="truck_truck" depart="56.02" departLane="best" from="486698571#0" to="37262677#22"/>
    <trip id="truck27" type="truck_truck" depart="58.18" departLane="best" from="-31610728#12" to="1272538278#1"/>
    <trip id="truck28" type="truck_truck" depart="60.33" departLane="best" from="-53590784#0" to="-37717839#2"/>
    <trip id="truck29" type="truck_truck" depart="62.49" departLane="best" from="-28452052#0" to="66682764#2"/>
    <trip id="truck30" type="truck_truck" depart="64.64" departLane="best" from="55007036#1" to="554332069#0"/>
    <trip id="truck31" type="truck_truck" depart="66.79" departLane="best" from="-26351769#3" to="-1098037224#1"/>
    <trip id="truck33" type="truck_truck" depart="71.10" departLane="best" from="-37262677#17" to="-34294586"/>
    <trip id="truck34" type="truck_truck" depart="73.26" departLane="best" from="23564564#0" to="37262677#30"/>
    <trip id="truck35" type="truck_truck" depart="75.41" departLane="best" from="23897989#0" to="37519804#1"/>
    <trip id="truck36" type="truck_truck" depart="77.57" departLane="best" from="1101220712#2" to="30750522#0"/>
    <trip id="truck37" type="truck_truck" depart="79.72" departLane="best" from="95781113" to="22973895#25"/>
    <trip id="truck39" type="truck_truck" depart="84.03" departLane="best" departSpeed="max" from="-23359947#5" to="25334373#6"/>
    <trip id="truck40" type="truck_truck" depart="86.19" departLane="best" from="-17983654#4" to="1026867106#2"/>
    <trip id="truck41" type="truck_truck" depart="88.34" departLane="best" from="946101318#7" to="232170523#1"/>
    <trip id="truck42" type="truck_truck" depart="90.50" departLane="best" from="83813041#0" to="53751544#9"/>
    <trip id="truck43" type="truck_truck" depart="92.65" departLane="best" from="1155574708#1" to="31610728#23"/>
    <trip id="truck44" type="truck_truck" depart="94.81" departLane="best" from="27775647#2" to="-23359683#2"/>
    <trip id="truck45" type="truck_truck" depart="96.96" departLane="best" from="-37262677#27" to="25718555#5"/>
    <trip id="truck46" type="truck_truck" depart="99.11" departLane="best" from="-23360056#0" to="1272538174#5"/>
    <trip id="truck47" type="truck_truck" depart="101.27" departLane="best" from="130661237#1" to="-770074670#1"/>
    <trip id="truck48" type="truck_truck" depart="103.42" departLane="best" departSpeed="max" from="55007036#0" to="37262677#32"/>
    <trip id="truck49" type="truck_truck" depart="105.58" departLane="best" from="206310941#2" to="-26266274"/>
    <trip id="truck51" type="truck_truck" depart="109.89" departLane="best" departSpeed="max" from="-44499681#9" to="25718555#13"/>
    <trip id="truck52" type="truck_truck" depart="112.04" departLane="best" from="25049384#5" to="-25049824#6"/>
    <trip id="truck53" type="truck_truck" depart="114.20" departLane="best" from="34555813#3" to="23359713#5"/>
    <trip id="truck54" type="truck_truck" depart="116.35" departLane="best" from="-37262677#33" to="23332581#1"/>
    <trip id="truck55" type="truck_truck" depart="118.51" departLane="best" from="-1026867106#1" to="-586374181#10"/>
    <trip id="truck56" type="truck_truck" depart="120.66" departLane="best" departSpeed="max" from="-1228016860" to="629542294#1"/>
    <trip id="truck57" type="truck_truck" depart="122.82" departLane="best" from="55482885#1" to="44847055"/>
    <trip id="truck59" type="truck_truck" depart="127.13" departLane="best" from="55482836#4" to="-72493059#0"/>
    <trip id="truck60" type="truck_truck" depart="129.28" departLane="best" from="23027975#8" to="202993081#1"/>
    <trip id="truck62" type="truck_truck" depart="133.59" departLane="best" from="35772493#3" to="-23652273#5"/>
    <trip id="truck63" type="truck_truck" depart="135.74" departLane="best" from="153950038#6" to="-23360162#1"/>
    <trip id="truck64" type="truck_truck" depart="137.90" departLane="best" from="-37262677#17" to="543048020#1"/>
    <trip id="truck65" type="truck_truck" depart="140.05" departLane="best" from="-1193905917#0" to="29995742#2"/>
    <trip id="truck66" type="truck_truck" depart="142.21" departLane="best" from="232170523#1" to="316256629#0"/>
    <trip id="truck68" type="truck_truck" depart="146.52" departLane="best" from="946101318#1" to="26219609#0"/>
    <trip id="truck69" type="truck_truck" depart="148.67" departLane="best" from="1271514687#1" to="23029041#3"/>
    <trip id="truck70" type="truck_truck" depart="150.83" departLane="best" from="-23564660#0" to="-31610728#2"/>
    <trip id="truck71" type="truck_truck" depart="152.98" departLane="best" from="58986954#1" to="24212729#0"/>
    <trip id="truck72" type="truck_truck" depart="155.14" departLane="best" from="-220874572" to="25568017#6"/>
    <trip id="truck73" type="truck_truck" depart="157.29" departLane="best" from="-31610728#12" to="621781833#2"/>
    <trip id="truck74" type="truck_truck" depart="159.45" departLane="best" from="-53590784#0" to="17983654#2"/>
    <trip id="truck75" type="truck_truck" depart="161.60" departLane="best" departSpeed="max" from="-316256626#10" to="27445634#8"/>
    <trip id="truck76" type="truck_truck" depart="163.76" departLane="best" from="-28812281#0" to="-23897989#1"/>
    <trip id="truck77" type="truck_truck" depart="165.91" departLane="best" from="629542312#2" to="-23652105#4"/>
    <trip id="truck78" type="truck_truck" depart="168.06" departLane="best" departSpeed="max" from="152358482" to="378887012#0"/>
    <trip id="truck79" type="truck_truck" depart="170.22" departLane="best" from="318210196#1" to="-27519602"/>
    <trip id="truck80" type="truck_truck" depart="172.37" departLane="best" from="-58871588#0" to="153963756#10"/>
    <trip id="truck81" type="truck_truck" depart="174.53" departLane="best" from="316256629#1" to="-27770978#5"/>
    <trip id="truck82" type="truck_truck" depart="176.68" departLane="best" from="89984814#3" to="-23108058#7"/>
    <trip id="truck83" type="truck_truck" depart="178.84" departLane="best" from="621781826" to="629487719#1"/>
    <trip id="truck84" type="truck_truck" depart="180.99" departLane="best" from="-53751544#5" to="-34519301#2"/>
    <trip id="truck85" type="truck_truck" depart="183.15" departLane="best" from="-27296270#6" to="141248951#1"/>
    <trip id="truck87" type="truck_truck" depart="187.46" departLane="best" from="1274152442#2" to="53832322#1"/>
    <trip id="truck88" type="truck_truck" depart="189.61" departLane="best" departSpeed="max" from="23359763#0" to="-141250552#0"/>
    <trip id="truck89" type="truck_truck" depart="191.77" departLane="best" from="-9725285#0" to="46848294#0"/>
    <trip id="truck90" type="truck_truck" depart="193.92" departLane="best" from="653939082#0" to="629542258#1"/>
    <trip id="truck91" type="truck_truck" depart="196.08" departLane="best" from="5084495#2" to="-25715906#2"/>
    <trip id="truck92" type="truck_truck" depart="198.23" departLane="best" from="17343461" to="-30016044#1"/>
    <trip id="truck93" type="truck_truck" depart="200.38" departLane="best" from="1111162058#2" to="-152358482"/>
    <trip id="truck94" type="truck_truck" depart="202.54" departLane="best" from="-946101318#2" to="90042841#1"/>
    <trip id="truck95" type="truck_truck" depart="204.69" departLane="best" from="-37262677#18" to="-37717839#3"/>
    <trip id="truck96" type="truck_truck" depart="206.85" departLane="best" departSpeed="max" from="130661239" to="1268191584#0"/>
    <trip id="truck97" type="truck_truck" depart="209.00" departLane="best" from="770074670#5" to="946101318#2"/>
    <trip id="truck98" type="truck_truck" depart="211.16" departLane="best" from="23360162#0" to="31610728#13"/>
    <trip id="truck99" type="truck_truck" depart="213.31" departLane="best" from="-25049050#1" to="-47372949#1"/>
    <trip id="truck100" type="truck_truck" depart="215.47" departLane="best" from="8325111#3" to="23897655#6"/>
    <trip id="truck101" type="truck_truck" depart="217.62" departLane="best" departSpeed="max" from="23341769" to="-33804566#2"/>
    <trip id="truck102" type="truck_truck" depart="219.78" departLane="best" from="-153963756#7" to="23897778#7"/>
    <trip id="truck103" type="truck_truck" depart="221.93" departLane="best" from="217290412#1" to="53162561"/>
    <trip id="truck104" type="truck_truck" depart="224.09" departLane="best" from="-22973895#5" to="27296270#7"/>
    <trip id="truck105" type="truck_truck" depart="226.24" departLane="best" from="24959815#0" to="27774097#2"/>
    <trip id="truck106" type="truck_truck" depart="228.40" departLane="best" from="-586374181#9" to="-34294586"/>
    <trip id="truck107" type="truck_truck" depart="230.55" departLane="best" from="24935548#2" to="25171282#1"/>
    <trip id="truck108" type="truck_truck" depart="232.70" departLane="best" from="-1170865431" to="23897778#6"/>
    <trip id="truck109" type="truck_truck" depart="234.86" departLane="best" from="-23027756#1" to="650780418#0"/>
    <trip id="truck110" type="truck_truck" depart="237.01" departLane="best" from="-27774529#5" to="31610726"/>
    <trip id="truck111" type="truck_truck" depart="239.17" departLane="best" from="-316256626#7" to="-1098037224#2"/>
    <trip id="truck112" type="truck_truck" depart="241.32" departLane="best" departSpeed="max" from="27770978#0" to="-495535221#3"/>
    <trip id="truck113" type="truck_truck" depart="243.48" departLane="best" from="-53751544#0" to="-34294585#0"/>
    <trip id="truck115" type="truck_truck" depart="247.79" departLane="best" from="-970313522#1" to="946101318#7"/>
    <trip id="truck116" type="truck_truck" depart="249.94" departLane="best" from="-22736007#5" to="-30016043#0"/>
    <trip id="truck117" type="truck_truck" depart="252.10" departLane="best" from="-37262677#18" to="629542457#2"/>
    <trip id="truck118" type="truck_truck" depart="254.25" departLane="best" from="542662637" to="55751866#0"/>
    <trip id="truck119" type="truck_truck" depart="256.41" departLane="best" from="-44847110#1" to="30133975#14"/>
    <trip id="truck120" type="truck_truck" depart="258.56" departLane="best" from="25049824#2" to="-770525174#0"/>
    <trip id="truck121" type="truck_truck" depart="260.72" departLane="best" departSpeed="max" from="26284191" to="1118676626#3"/>
    <trip id="truck122" type="truck_truck" depart="262.87" departLane="best" from="27359750#1" to="653939079#0"/>
    <trip id="truck123" type="truck_truck" depart="265.02" departLane="best" from="-23652273#5" to="-23368384#1"/>
    <trip id="truck124" type="truck_truck" depart="267.18" departLane="best" from="-38261112#0" to="24978752#2"/>
    <trip id="truck125" type="truck_truck" depart="269.33" departLane="best" from="31610728#1" to="28094284#8"/>
    <trip id="truck126" type="truck_truck" depart="271.49" departLane="best" from="-25715906#1" to="37262677#34"/>
    <trip id="truck127" type="truck_truck" depart="273.64" departLane="best" departSpeed="max" from="173567743" to="621781833#2"/>
    <trip id="truck128" type="truck_truck" depart="275.80" departLane="best" departSpeed="max" from="5084494#0" to="-23029391#0"/>
    <trip id="truck129" type="truck_truck" depart="277.95" departLane="best" from="-58871588#0" to="-40928956#2"/>
    <trip id="truck130" type="truck_truck" depart="280.11" departLane="best" departSpeed="max" from="25715908" to="37262677#28"/>
    <trip id="truck131" type="truck_truck" depart="282.26" departLane="best" from="32879670#2" to="23360193#1"/>
    <trip id="truck132" type="truck_truck" depart="284.42" departLane="best" from="-22876052#1" to="-56541879#3"/>
    <trip id="truck133" type="truck_truck" depart="286.57" departLane="best" from="60213816#17" to="23359947#5"/>
    <trip id="truck134" type="truck_truck" depart="288.73" departLane="best" departSpeed="max" from="4546224#0" to="23897730#8"/>
    <trip id="truck135" type="truck_truck" depart="290.88" departLane="best" from="-24959815#0" to="-23652210#1"/>
    <trip id="truck136" type="truck_truck" depart="293.04" departLane="best" from="-490733269#2" to="60213816#10"/>
    <trip id="truck137" type="truck_truck" depart="295.19" departLane="best" from="397118977#8" to="53751544#9"/>
    <trip id="truck138" type="truck_truck" depart="297.34" departLane="best" departSpeed="max" from="-34239931" to="23350785#1"/>
    <trip id="truck139" type="truck_truck" depart="299.50" departLane="best" from="1149340566#0" to="25171322#11"/>
    <trip id="truck140" type="truck_truck" depart="301.65" departLane="best" from="25046286#2" to="54225055#0"/>
    <trip id="truck141" type="truck_truck" depart="303.81" departLane="best" from="53839706#0" to="880278109#0"/>
    <trip id="truck142" type="truck_truck" depart="305.96" departLane="best" from="41850466#6" to="56126508#1"/>
    <trip id="truck143" type="truck_truck" depart="308.12" departLane="best" from="-1269100198#0" to="30850291#1"/>
    <trip id="truck144" type="truck_truck" depart="310.27" departLane="best" from="586374181#10" to="629542312#3"/>
    <trip id="truck145" type="truck_truck" depart="312.43" departLane="best" from="41215071#3" to="53839706#1"/>
    <trip id="truck146" type="truck_truck" depart="314.58" departLane="best" from="41850466#6" to="-37262792#1"/>
    <trip id="truck147" type="truck_truck" depart="316.74" departLane="best" from="38261112#0" to="-23359763#0"/>
    <trip id="truck148" type="truck_truck" depart="318.89" departLane="best" from="542665955#3" to="53751544#13"/>
    <trip id="truck149" type="truck_truck" depart="321.05" departLane="best" from="-30644478#2" to="42921210#0"/>
    <trip id="truck150" type="truck_truck" depart="323.20" departLane="best" from="397118977#5" to="-31610728#33"/>
    <trip id="truck151" type="truck_truck" depart="325.36" departLane="best" from="-1268830579" to="-27774092"/>
    <trip id="truck152" type="truck_truck" depart="327.51" departLane="best" from="56434807" to="53864581"/>
    <trip id="truck153" type="truck_truck" depart="329.67" departLane="best" from="82816672#1" to="-41211487#5"/>
    <trip id="truck154" type="truck_truck" depart="331.82" departLane="best" from="25718555#17" to="621781829"/>
    <trip id="truck155" type="truck_truck" depart="333.97" departLane="best" from="880278114#2" to="23359655#2"/>
    <trip id="truck156" type="truck_truck" depart="336.13" departLane="best" from="650780418#3" to="-23368384#1"/>
    <trip id="truck157" type="truck_truck" depart="338.28" departLane="best" from="-8361800#1" to="-26266274"/>
    <trip id="truck158" type="truck_truck" depart="340.44" departLane="best" from="771391054#0" to="-37262792#0"/>
    <trip id="truck159" type="truck_truck" depart="342.59" departLane="best" from="-23359942#1" to="1272538174#2"/>
    <trip id="truck160" type="truck_truck" depart="344.75" departLane="best" from="316256628#0" to="-55007036#0"/>
    <trip id="truck161" type="truck_truck" depart="346.90" departLane="best" from="25049058#0" to="23027756#1"/>
    <trip id="truck162" type="truck_truck" depart="349.06" departLane="best" from="1002042615#1" to="-23652273#9"/>
    <trip id="truck163" type="truck_truck" depart="351.21" departLane="best" departSpeed="max" from="-34555812#4" to="30644478#0"/>
    <trip id="truck164" type="truck_truck" depart="353.37" departLane="best" from="-1051477230" to="629542254#1"/>
    <trip id="truck165" type="truck_truck" depart="355.52" departLane="best" from="23108058#7" to="31610728#17"/>
    <trip id="truck166" type="truck_truck" depart="357.68" departLane="best" from="771391055" to="-177015214#3"/>
    <trip id="truck167" type="truck_truck" depart="359.83" departLane="best" from="27359757#0" to="-60213816#0"/>
    <trip id="truck168" type="truck_truck" depart="361.99" departLane="best" from="-53357503" to="53137619#1"/>
    <trip id="truck169" type="truck_truck" depart="364.14" departLane="best" from="31610728#18" to="-5084494#1"/>
    <trip id="truck170" type="truck_truck" depart="366.29" departLane="best" from="-5084494#2" to="1161214836#0"/>
    <trip id="truck171" type="truck_truck" depart="368.45" departLane="best" from="1113019559#3" to="-44847111"/>
    <trip id="truck172" type="truck_truck" depart="370.60" departLane="best" from="-23652069#2" to="1228016860"/>
    <trip id="truck173" type="truck_truck" depart="372.76" departLane="best" from="650780418#7" to="27774103#3"/>
    <trip id="truck174" type="truck_truck" depart="374.91" departLane="best" from="60213816#10" to="-25049824#6"/>
    <trip id="truck175" type="truck_truck" depart="377.07" departLane="best" departSpeed="max" from="-44847055" to="23360056#9"/>
    <trip id="truck176" type="truck_truck" depart="379.22" departLane="best" from="-1003159244#2" to="-4290142#1"/>
    <trip id="truck177" type="truck_truck" depart="381.38" departLane="best" from="1268222437" to="23897655#9"/>
    <trip id="truck178" type="truck_truck" depart="383.53" departLane="best" from="-1272538278#1" to="-30016044#1"/>
    <trip id="truck179" type="truck_truck" depart="385.69" departLane="best" from="152358483#3" to="-60213816#2"/>
    <trip id="truck180" type="truck_truck" depart="387.84" departLane="best" from="397118977#8" to="-25718555#12"/>
    <trip id="truck181" type="truck_truck" depart="390.00" departLane="best" departSpeed="max" from="25689992" to="-60213816#9"/>
    <trip id="truck183" type="truck_truck" depart="394.31" departLane="best" from="27770978#2" to="-31610728#2"/>
    <trip id="truck184" type="truck_truck" depart="396.46" departLane="best" from="27770978#5" to="-1268830572#0"/>
    <trip id="truck185" type="truck_truck" depart="398.61" departLane="best" from="-31971030#0" to="17344178#1"/>
    <trip id="truck187" type="truck_truck" depart="402.92" departLane="best" from="1161214836#1" to="25425056#1"/>
    <trip id="truck188" type="truck_truck" depart="405.08" departLane="best" from="-27410903#3" to="28812281#2"/>
    <trip id="truck189" type="truck_truck" depart="407.23" departLane="best" from="26381926#4" to="-1098037224#0"/>
    <trip id="truck191" type="truck_truck" depart="411.54" departLane="best" departSpeed="max" from="-23359729#4" to="1268715239"/>
    <trip id="truck192" type="truck_truck" depart="413.70" departLane="best" from="-25718555#7" to="-771368477#14"/>
    <trip id="truck194" type="truck_truck" depart="418.01" departLane="best" departSpeed="max" from="-34239931" to="53137619#1"/>
    <trip id="truck195" type="truck_truck" depart="420.16" departLane="best" from="141103985#0" to="41222346#11"/>
    <trip id="truck196" type="truck_truck" depart="422.32" departLane="best" from="27445634#2" to="904155539"/>
    <trip id="truck197" type="truck_truck" depart="424.47" departLane="best" from="24959815#2" to="72887627#0"/>
    <trip id="truck198" type="truck_truck" depart="426.63" departLane="best" from="-58871588#2" to="25049384#8"/>
    <trip id="truck200" type="truck_truck" depart="430.93" departLane="best" from="44499682#1" to="-23360056#9"/>
    <trip id="truck201" type="truck_truck" depart="433.09" departLane="best" from="58880117#4" to="32903764#1"/>
    <trip id="truck202" type="truck_truck" depart="435.24" departLane="best" from="153950038#3" to="37262677#13"/>
    <trip id="truck203" type="truck_truck" depart="437.40" departLane="best" from="-32904740" to="25715910#4"/>
    <trip id="truck205" type="truck_truck" depart="441.71" departLane="best" from="25568017#5" to="-397118977#7"/>
    <trip id="truck207" type="truck_truck" depart="446.02" departLane="best" from="37717839#2" to="-56541879#0"/>
    <trip id="truck208" type="truck_truck" depart="448.17" departLane="best" from="232940458#2" to="-24874189#3"/>
    <trip id="truck209" type="truck_truck" depart="450.33" departLane="best" from="-31610728#22" to="286761872#0"/>
    <trip id="truck210" type="truck_truck" depart="452.48" departLane="best" from="30133975#14" to="-153963756#9"/>
    <trip id="truck211" type="truck_truck" depart="454.64" departLane="best" departSpeed="max" from="1169598585" to="-28492646#2"/>
    <trip id="truck212" type="truck_truck" depart="456.79" departLane="best" from="37519803#3" to="621781833#2"/>
    <trip id="truck213" type="truck_truck" depart="458.95" departLane="best" from="629542239#0" to="35772493#3"/>
    <trip id="truck214" type="truck_truck" depart="461.10" departLane="best" from="-952327190#2" to="-1098037224#2"/>
    <trip id="truck215" type="truck_truck" depart="463.25" departLane="best" from="-72493018#0" to="34474265#14"/>
    <trip id="truck216" type="truck_truck" depart="465.41" departLane="best" from="53162560" to="761437568#5"/>
    <trip id="truck217" type="truck_truck" depart="467.56" departLane="best" from="-1170865431" to="437264984#0"/>
    <trip id="truck218" type="truck_truck" depart="469.72" departLane="best" from="23359655#1" to="24974188"/>
    <trip id="truck219" type="truck_truck" depart="471.87" departLane="best" from="-1268830863" to="-1271514687#1"/>
    <trip id="truck220" type="truck_truck" depart="474.03" departLane="best" from="58871871#2" to="-1098037224#0"/>
    <trip id="truck221" type="truck_truck" depart="476.18" departLane="best" from="143725210#7" to="23652273#13"/>
    <trip id="truck222" type="truck_truck" depart="478.34" departLane="best" from="25334373#1" to="-1268832633"/>
    <trip id="truck223" type="truck_truck" depart="480.49" departLane="best" from="-771391054#2" to="23564661"/>
    <trip id="truck225" type="truck_truck" depart="484.80" departLane="best" from="143725213#1" to="1002042617#1"/>
    <trip id="truck226" type="truck_truck" depart="486.96" departLane="best" departSpeed="max" from="-28452052#1" to="1193905917#3"/>
    <trip id="truck227" type="truck_truck" depart="489.11" departLane="best" from="-34555812#2" to="1002042617#1"/>
    <trip id="truck230" type="truck_truck" depart="495.57" departLane="best" from="997599707" to="-770074670#0"/>
    <trip id="truck231" type="truck_truck" depart="497.73" departLane="best" from="26266274" to="34474265#20"/>
    <trip id="truck232" type="truck_truck" depart="499.88" departLane="best" from="72493059#0" to="-27775647#1"/>
    <trip id="truck233" type="truck_truck" depart="502.04" departLane="best" departSpeed="max" from="-1228016860" to="-25049824#4"/>
    <trip id="truck234" type="truck_truck" depart="504.19" departLane="best" from="-23652054#0" to="27464631#1"/>
    <trip id="truck235" type="truck_truck" depart="506.35" departLane="best" from="23564660#0" to="-305952631"/>
    <trip id="truck236" type="truck_truck" depart="508.50" departLane="best" from="29995742#0" to="35772494#0"/>
    <trip id="truck237" type="truck_truck" depart="510.66" departLane="best" departSpeed="max" from="34175097" to="23360193#0"/>
    <trip id="truck238" type="truck_truck" depart="512.81" departLane="best" from="-23359798#1" to="-1268832025"/>
    <trip id="truck239" type="truck_truck" depart="514.97" departLane="best" from="53065915#1" to="27774103#5"/>
    <trip id="truck240" type="truck_truck" depart="517.12" departLane="best" from="770525174#2" to="1102258309#1"/>
    <trip id="truck242" type="truck_truck" depart="521.43" departLane="best" from="286761863#0" to="-25334373#6"/>
    <trip id="truck243" type="truck_truck" depart="523.59" departLane="best" from="23359683#0" to="37084647"/>
    <trip id="truck244" type="truck_truck" depart="525.74" departLane="best" from="52985977#3" to="24959989#5"/>
    <trip id="truck245" type="truck_truck" depart="527.90" departLane="best" from="-23564660#3" to="90018567#1"/>
    <trip id="truck246" type="truck_truck" depart="530.05" departLane="best" from="37519800#0" to="-72493064#1"/>
    <trip id="truck247" type="truck_truck" depart="532.20" departLane="best" from="1268151474#2" to="-946101316#2"/>
    <trip id="truck248" type="truck_truck" depart="534.36" departLane="best" from="220874571#2" to="629487719#6"/>
    <trip id="truck249" type="truck_truck" depart="536.51" departLane="best" from="52985977#1" to="429356223#0"/>
    <trip id="truck250" type="truck_truck" depart="538.67" departLane="best" from="-23359729#2" to="-771391054#2"/>
    <trip id="truck251" type="truck_truck" depart="540.82" departLane="best" from="25715906#3" to="44499681#9"/>
    <trip id="truck252" type="truck_truck" depart="542.98" departLane="best" from="30133975#4" to="-1273398105#0"/>
    <trip id="truck253" type="truck_truck" depart="545.13" departLane="best" from="316256636#2" to="824216397#1"/>
    <trip id="truck254" type="truck_truck" depart="547.29" departLane="best" from="-37262677#7" to="41850466#3"/>
    <trip id="truck255" type="truck_truck" depart="549.44" departLane="best" from="23108058#5" to="-19543079"/>
    <trip id="truck256" type="truck_truck" depart="551.60" departLane="best" from="-37262677#32" to="53137992"/>
    <trip id="truck257" type="truck_truck" depart="553.75" departLane="best" from="318210197#0" to="-23027887#0"/>
    <trip id="truck259" type="truck_truck" depart="558.06" departLane="best" from="143725210#1" to="25049078"/>
    <trip id="truck260" type="truck_truck" depart="560.22" departLane="best" from="-946101318#2" to="1271540883"/>
    <trip id="truck261" type="truck_truck" depart="562.37" departLane="best" from="53065915#3" to="-26536910#0"/>