<?xml version="1.0" encoding="UTF-8"?>

<!-- generated on 2024-04-21 13:03:51.573366 by osmWebWizard.py UNKNOWN
<configuration>
    <fringe-factor value="5"/>
    <fringe-start-attributes value="departSpeed=&quot;max&quot;"/>
    <insertion-density value="4.0"/>
    <min-distance.fringe value="10.0"/>
    <min-distance value="600.0"/>
    <net-file value="/Users/yasser/2024-04-21-13-03-17/osm.net.xml.gz"/>
    <remove-loops value="True"/>
    <route-file value="/Users/yasser/2024-04-21-13-03-17/osm.bus.rou.xml"/>
    <trip-attributes value="departLane=&quot;best&quot;"/>
    <output-trip-file value="/Users/yasser/2024-04-21-13-03-17/osm.bus.trips.xml"/>
    <prefix value="bus"/>
    <validate value="True"/>
    <vclass value="bus"/>
    <vehicle-class value="bus"/>
    <via-edge-types value="highway.motorway,highway.motorway_link,highway.trunk_link,highway.primary_link,highway.secondary_link,highway.tertiary_link"/>
</configuration>
-->

<!-- generated on 2024-04-21 13:03:51 by Eclipse SUMO duarouter Version 1.18.0
<configuration xmlns:xsi="http://www.w3.org/2001/XMLSchema-instance" xsi:noNamespaceSchemaLocation="http://sumo.dlr.de/xsd/duarouterConfiguration.xsd">

    <input>
        <net-file value="/Users/yasser/2024-04-21-13-03-17/osm.net.xml.gz"/>
        <route-files value="/Users/yasser/2024-04-21-13-03-17/osm.bus.trips.xml"/>
    </input>

    <output>
        <output-file value="/Users/yasser/2024-04-21-13-03-17/osm.bus.trips.xml.tmp"/>
        <alternatives-output value="NUL"/>
        <write-trips value="true"/>
    </output>

    <processing>
        <remove-loops value="true"/>
    </processing>

    <time>
        <begin value="0.0"/>
        <end value="3600.0"/>
    </time>

    <report>
        <no-warnings value="true"/>
        <ignore-errors value="true"/>
        <no-step-log value="true"/>
    </report>

</configuration>
-->

<routes xmlns:xsi="http://www.w3.org/2001/XMLSchema-instance" xsi:noNamespaceSchemaLocation="http://sumo.dlr.de/xsd/routes_file.xsd">
    <vType id="bus_bus" vClass="bus"/>
    <trip id="bus0" type="bus_bus" depart="0.00" departLane="best" from="25718555#3" to="-1268831162#2"/>
    <trip id="bus1" type="bus_bus" depart="4.30" departLane="best" from="397118977#9" to="-31610728#29"/>
    <trip id="bus2" type="bus_bus" depart="8.59" departLane="best" from="53357504#0" to="27774531#2"/>
    <trip id="bus3" type="bus_bus" depart="12.89" departLane="best" from="58871872#0" to="-23027936"/>
    <trip id="bus4" type="bus_bus" depart="17.19" departLane="best" from="1202083397#2" to="25425034#1"/>
    <trip id="bus5" type="bus_bus" depart="21.48" departLane="best" from="1271541377#1" to="28094284#11"/>
    <trip id="bus6" type="bus_bus" depart="25.78" departLane="best" departSpeed="max" from="26268124#0" to="23360082#2"/>
    <trip id="bus7" type="bus_bus" depart="30.07" departLane="best" departSpeed="max" from="-31101546#2" to="24250314"/>
    <trip id="bus8" type="bus_bus" depart="34.37" departLane="best" departSpeed="max" from="4236577#0" to="1101220712#2"/>
    <trip id="bus10" type="bus_bus" depart="42.96" departLane="best" from="629487715#1" to="-25425047#0"/>
    <trip id="bus11" type="bus_bus" depart="47.26" departLane="best" from="770525174#1" to="629487719#7"/>
    <trip id="bus12" type="bus_bus" depart="51.56" departLane="best" from="5084495#4" to="25046286#0"/>
    <trip id="bus13" type="bus_bus" depart="55.85" departLane="best" from="41850466#6" to="316256637#4"/>
    <trip id="bus14" type="bus_bus" depart="60.15" departLane="best" from="44847058#4" to="25171322#9"/>
    <trip id="bus15" type="bus_bus" depart="64.44" departLane="best" from="30133975#5" to="-141248951#0"/>
    <trip id="bus16" type="bus_bus" depart="68.74" departLane="best" from="-31610728#22" to="-445493001#6"/>
    <trip id="bus17" type="bus_bus" depart="73.04" departLane="best" from="-23027756#1" to="-318210192"/>
    <trip id="bus18" type="bus_bus" depart="77.33" departLane="best" from="23359683#2" to="-41414188#3"/>
    <trip id="bus19" type="bus_bus" depart="81.63" departLane="best" departSpeed="max" from="25715908" to="-946101316#0"/>
    <trip id="bus20" type="bus_bus" depart="85.93" departLane="best" departSpeed="max" from="-904155539" to="-30016043#0"/>
    <trip id="bus21" type="bus_bus" depart="90.22" departLane="best" from="26219609#1" to="-25049386#2"/>
    <trip id="bus22" type="bus_bus" depart="94.52" departLane="best" from="-25718555#14" to="-316256637#0"/>
    <trip id="bus23" type="bus_bus" depart="98.81" departLane="best" from="-25568017#6" to="1056795859#4"/>
    <trip id="bus24" type="bus_bus" depart="103.11" departLane="best" from="930410027#2" to="25991883#1"/>
    <trip id="bus25" type="bus_bus" depart="107.41" departLane="best" from="23361405#6" to="-28492646#1"/>
    <trip id="bus26" type="bus_bus" depart="111.70" departLane="best" from="491652949" to="37519804#1"/>
    <trip id="bus27" type="bus_bus" depart="116.00" departLane="best" from="-31610728#28" to="1273398105#0"/>
    <trip id="bus28" type="bus_bus" depart="120.30" departLane="best" departSpeed="max" from="-53832621#3" to="-397118977#0"/>
    <trip id="bus29" type="bus_bus" depart="124.59" departLane="best" from="286761866" to="72493018#2"/>
    <trip id="bus30" type="bus_bus" depart="128.89" departLane="best" from="55482836#1" to="-56434807"/>
    <trip id="bus31" type="bus_bus" depart="133.19" departLane="best" from="26536910#0" to="1118676626#3"/>
    <trip id="bus32" type="bus_bus" depart="137.48" departLane="best" from="23564566#0" to="-37262792#0"/>
    <trip id="bus33" type="bus_bus" depart="141.78" departLane="best" from="-24212729#2" to="-60213816#9"/>
    <trip id="bus34" type="bus_bus" depart="146.07" departLane="best" from="1113019559#1" to="-31610728#11"/>
    <trip id="bus35" type="bus_bus" depart="150.37" departLane="best" from="95781113" to="23027887#2"/>
    <trip id="bus36" type="bus_bus" depart="154.67" departLane="best" from="-23108058#0" to="141248951#5"/>
    <trip id="bus37" type="bus_bus" depart="158.96" departLane="best" from="23360007#8" to="25606923#2"/>
    <trip id="bus38" type="bus_bus" depart="163.26" departLane="best" from="397118977#7" to="1268830572#0"/>
    <trip id="bus39" type="bus_bus" depart="167.56" departLane="best" from="17983654#7" to="10621706#5"/>
    <trip id="bus40" type="bus_bus" depart="171.85" departLane="best" from="946101318#7" to="23350785#3"/>
    <trip id="bus41" type="bus_bus" depart="176.15" departLane="best" from="836717814" to="54225047#1"/>
    <trip id="bus42" type="bus_bus" depart="180.44" departLane="best" from="-115728080#3" to="316253676"/>
    <trip id="bus43" type="bus_bus" depart="184.74" departLane="best" from="28094284#13" to="23359729#4"/>
    <trip id="bus44" type="bus_bus" depart="189.04" departLane="best" from="37262792#1" to="25991905#1"/>
    <trip id="bus45" type="bus_bus" depart="193.33" departLane="best" from="23360162#1" to="130095724#2"/>
    <trip id="bus46" type="bus_bus" depart="197.63" departLane="best" from="-141105517#0" to="-771368477#10"/>
    <trip id="bus47" type="bus_bus" depart="201.93" departLane="best" from="216862003#1" to="-26381926#1"/>
    <trip id="bus48" type="bus_bus" depart="206.22" departLane="best" from="625169350" to="554332069#0"/>
    <trip id="bus49" type="bus_bus" depart="210.52" departLane="best" from="44847058#4" to="25991823#1"/>
    <trip id="bus50" type="bus_bus" depart="214.81" departLane="best" from="25049386#2" to="-25334373#0"/>
    <trip id="bus51" type="bus_bus" depart="219.11" departLane="best" from="37519800#0" to="23350785#3"/>
    <trip id="bus52" type="bus_bus" depart="223.41" departLane="best" from="-1026867106#1" to="-58873016"/>
    <trip id="bus53" type="bus_bus" depart="227.70" departLane="best" from="55482894#8" to="47250330"/>
    <trip id="bus54" type="bus_bus" depart="232.00" departLane="best" from="-52985977#3" to="-152358482"/>
    <trip id="bus55" type="bus_bus" depart="236.30" departLane="best" from="23029042#1" to="220520555#3"/>
    <trip id="bus56" type="bus_bus" depart="240.59" departLane="best" from="220520559#0" to="35772494#1"/>
    <trip id="bus57" type="bus_bus" depart="244.89" departLane="best" from="35772495#13" to="23897655#7"/>
    <trip id="bus58" type="bus_bus" depart="249.19" departLane="best" from="153963756#3" to="23361426#0"/>
    <trip id="bus59" type="bus_bus" depart="253.48" departLane="best" from="-37262677#34" to="-55482885#0"/>
    <trip id="bus60" type="bus_bus" depart="257.78" departLane="best" from="120343501#2" to="-30016044#1"/>
    <trip id="bus61" type="bus_bus" depart="262.07" departLane="best" from="23332581#1" to="-316256637#4"/>
    <trip id="bus62" type="bus_bus" depart="266.37" departLane="best" from="-27774529#4" to="-55482836#1"/>
    <trip id="bus64" type="bus_bus" depart="274.96" departLane="best" departSpeed="max" from="-23564660#6" to="-31610728#34"/>
    <trip id="bus65" type="bus_bus" depart="279.26" departLane="best" from="-22736006#2" to="25715906#4"/>
    <trip id="bus66" type="bus_bus" depart="283.56" departLane="best" from="-31610728#28" to="625169347#1"/>
    <trip id="bus67" type="bus_bus" depart="287.85" departLane="best" from="-53751544#4" to="-17983654#6"/>
    <trip id="bus69" type="bus_bus" depart="296.44" departLane="best" from="-290586813" to="-24212729#6"/>
    <trip id="bus70" type="bus_bus" depart="300.74" departLane="best" from="25968399#1" to="23652210#0"/>
    <trip id="bus71" type="bus_bus" depart="305.04" departLane="best" from="153955571#3" to="-397118977#10"/>
    <trip id="bus72" type="bus_bus" depart="309.33" departLane="best" departSpeed="max" from="-23350836" to="1274152442#5"/>
    <trip id="bus73" type="bus_bus" depart="313.63" departLane="best" from="120343501#4" to="163237896#1"/>
    <trip id="bus74" type="bus_bus" depart="317.93" departLane="best" from="316256634#0" to="27774103#5"/>
    <trip id="bus75" type="bus_bus" depart="322.22" departLane="best" from="89984814#3" to="-23332581#2"/>
    <trip id="bus76" type="bus_bus" depart="326.52" departLane="best" from="-112659175" to="685270734"/>
    <trip id="bus77" type="bus_bus" depart="330.81" departLane="best" from="53832322#0" to="-34768931#2"/>
    <trip id="bus78" type="bus_bus" depart="335.11" departLane="best" from="27359750#3" to="-143725210#14"/>
    <trip id="bus79" type="bus_bus" depart="339.41" departLane="best" from="1202083397#2" to="-41853070#1"/>
    <trip id="bus80" type="bus_bus" depart="343.70" departLane="best" from="-34555812#2" to="629542282#1"/>
    <trip id="bus81" type="bus_bus" depart="348.00" departLane="best" from="-129762171#4" to="54225055#0"/>
    <trip id="bus82" type="bus_bus" depart="352.30" departLane="best" from="-23359798#1" to="-141250552#4"/>
    <trip id="bus83" type="bus_bus" depart="356.59" departLane="best" from="9725285#0" to="-487118302#0"/>
    <trip id="bus84" type="bus_bus" depart="360.89" departLane="best" from="52985977#3" to="-25715910#4"/>
    <trip id="bus85" type="bus_bus" depart="365.19" departLane="best" from="-1118676626#3" to="-152358482"/>
    <trip id="bus86" type="bus_bus" depart="369.48" departLane="best" from="970313521#0" to="90042841#1"/>
    <trip id="bus87" type="bus_bus" depart="373.78" departLane="best" from="-37262677#34" to="39300892#4"/>
    <trip id="bus88" type="bus_bus" depart="378.07" departLane="best" from="-141248951#0" to="1268830579"/>
    <trip id="bus89" type="bus_bus" depart="382.37" departLane="best" from="770525174#2" to="946101318#2"/>
    <trip id="bus90" type="bus_bus" depart="386.67" departLane="best" from="23361405#2" to="31610728#5"/>
    <trip id="bus91" type="bus_bus" depart="390.96" departLane="best" from="8325111#0" to="23897778#2"/>
    <trip id="bus92" type="bus_bus" depart="395.26" departLane="best" from="23341784#1" to="34474265#20"/>
    <trip id="bus93" type="bus_bus" depart="399.56" departLane="best" from="160612048#1" to="23897989#2"/>
    <trip id="bus94" type="bus_bus" depart="403.85" departLane="best" from="-220520559#0" to="-53540055#2"/>
    <trip id="bus95" type="bus_bus" depart="408.15" departLane="best" from="25049824#4" to="802202483"/>
    <trip id="bus96" type="bus_bus" depart="412.44" departLane="best" from="-23027826" to="27410903#3"/>
    <trip id="bus97" type="bus_bus" depart="416.74" departLane="best" from="24959852#4" to="27774529#4"/>
    <trip id="bus98" type="bus_bus" depart="421.04" departLane="best" from="-316256626#6" to="-23652015#3"/>
    <trip id="bus99" type="bus_bus" depart="425.33" departLane="best" from="58871869#1" to="34555812#2"/>
    <trip id="bus100" type="bus_bus" depart="429.63" departLane="best" from="24959852#3" to="25171349#2"/>
    <trip id="bus101" type="bus_bus" depart="433.93" departLane="best" from="23027887#0" to="650780418#6"/>
    <trip id="bus103" type="bus_bus" depart="442.52" departLane="best" from="316256636#2" to="1118676626#4"/>
    <trip id="bus104" type="bus_bus" depart="446.82" departLane="best" from="27774093#2" to="-53065915#1"/>
    <trip id="bus105" type="bus_bus" depart="451.11" departLane="best" departSpeed="max" from="-53832621#3" to="-34519301#1"/>
    <trip id="bus106" type="bus_bus" depart="455.41" departLane="best" from="-22736352#0" to="153950038#6"/>
    <trip id="bus107" type="bus_bus" depart="459.70" departLane="best" from="-970313522#1" to="946101318#7"/>
    <trip id="bus108" type="bus_bus" depart="464.00" departLane="best" departSpeed="max" from="-22815095" to="30134026#3"/>
    <trip id="bus109" type="bus_bus" depart="468.30" departLane="best" from="-37262677#34" to="650780418#10"/>
    <trip id="bus110" type="bus_bus" depart="472.59" departLane="best" from="56126508#1" to="-56541879#4"/>
    <trip id="bus111" type="bus_bus" depart="476.89" departLane="best" from="-90042843#2" to="-25606923#0"/>
    <trip id="bus113" type="bus_bus" depart="485.48" departLane="best" from="25171043#1" to="-90042843#2"/>
    <trip id="bus114" type="bus_bus" depart="489.78" departLane="best" from="26437422#0" to="1118676626#3"/>
    <trip id="bus115" type="bus_bus" depart="494.07" departLane="best" from="-42922001#5" to="-52985977#2"/>
    <trip id="bus116" type="bus_bus" depart="498.37" departLane="best" from="-27410903#2" to="661020512"/>
    <trip id="bus117" type="bus_bus" depart="502.67" departLane="best" from="-23897655#7" to="-23564564#0"/>
    <trip id="bus118" type="bus_bus" depart="506.96" departLane="best" from="-23359947#2" to="23368384#2"/>
    <trip id="bus119" type="bus_bus" depart="511.26" departLane="best" departSpeed="max" from="-383673950#3" to="-25049058#0"/>
    <trip id="bus120" type="bus_bus" depart="515.56" departLane="best" from="31610728#23" to="-28492646#1"/>
    <trip id="bus121" type="bus_bus" depart="519.85" departLane="best" from="25715906#6" to="-37717839#1"/>
    <trip id="bus122" type="bus_bus" depart="524.15" departLane="best" from="-17407088#1" to="625169347#1"/>
    <trip id="bus123" type="bus_bus" depart="528.44" departLane="best" from="5084494#3" to="-230415530#1"/>
    <trip id="bus124" type="bus_bus" depart="532.74" departLane="best" from="120343501#4" to="-41215071#3"/>
    <trip id="bus125" type="bus_bus" depart="537.04" departLane="best" departSpeed="max" from="-10621706#6" to="37262677#31"/>
    <trip id="bus126" type="bus_bus" depart="541.33" departLane="best" from="25718555#0" to="-37262792#0"/>
    <trip id="bus128" type="bus_bus" depart="549.93" departLane="best" from="60213816#9" to="23360088#2"/>
    <trip id="bus129" type="bus_bus" depart="554.22" departLane="best" from="47250087#5" to="23897892#1"/>
    <trip id="bus130" type="bus_bus" depart="558.52" departLane="best" from="-24959989#3" to="-23897655#1"/>
    <trip id="bus131" type="bus_bus" depart="562.82" departLane="best" from="53065915#3" to="22964784#1"/>
    <trip id="bus132" type="bus_bus" depart="567.11" departLane="best" from="41211487#2" to="54225047#1"/>
    <trip id="bus133" type="bus_bus" depart="571.41" departLane="best" from="59009855#0" to="-30016043#0"/>
    <trip id="bus134" type="bus_bus" depart="575.70" departLane="best" from="37519803#3" to="586374183#0"/>
    <trip id="bus136" type="bus_bus" depart="584.30" departLane="best" from="-25049296#0" to="641795777"/>
    <trip id="bus137" type="bus_bus" depart="588.59" departLane="best" from="54225055#0" to="880278105#0"/>
    <trip id="bus138" type="bus_bus" depart="592.89" departLane="best" from="4236577#2" to="586374181#1"/>
    <trip id="bus139" type="bus_bus" depart="597.19" departLane="best" from="-1269100198#1" to="32903764#1"/>
    <trip id="bus140" type="bus_bus" depart="601.48" departLane="best" from="-58877115" to="641795784"/>
    <trip id="bus141" type="bus_bus" depart="605.78" departLane="best" from="4236577#2" to="383673950#0"/>
    <trip id="bus142" type="bus_bus" depart="610.07" departLane="best" from="-383673950#0" to="-23359782#1"/>
    <trip id="bus143" type="bus_bus" depart="614.37" departLane="best" from="314546034#2" to="429356223#3"/>
    <trip id="bus144" type="bus_bus" depart="618.67" departLane="best" from="141250552#6" to="53751544#0"/>
    <trip id="bus145" type="bus_bus" depart="622.96" departLane="best" from="41211484#1" to="316256626#6"/>
    <trip id="bus146" type="bus_bus" depart="627.26" departLane="best" from="-1268830863" to="-27774529#2"/>
    <trip id="bus147" type="bus_bus" depart="631.56" departLane="best" from="-586374181#2" to="542662642#1"/>
    <trip id="bus148" type="bus_bus" depart="635.85" departLane="best" from="-828798880#1" to="-4236574#0"/>
    <trip id="bus149" type="bus_bus" depart="640.15" departLane="best" from="25968399#1" to="1149340566#5"/>
    <trip id="bus150" type="bus_bus" depart="644.44" departLane="best" from="880278114#1" to="23359729#1"/>
    <trip id="bus151" type="bus_bus" depart="648.74" departLane="best" from="-25568017#4" to="-23564564#0"/>
    <trip id="bus152" type="bus_bus" depart="653.04" departLane="best" from="8327416#2" to="-26381926#1"/>
    <trip id="bus153" type="bus_bus" depart="657.33" departLane="best" from="316256633#2" to="55751897#0"/>
    <trip id="bus154" type="bus_bus" depart="661.63" departLane="best" from="25049296#1" to="23027975#1"/>
    <trip id="bus155" type="bus_bus" depart="665.93" departLane="best" from="1003178503#0" to="23897730#0"/>
    <trip id="bus156" type="bus_bus" depart="670.22" departLane="best" from="-35772493#5" to="-314546034#3"/>
    <trip id="bus157" type="bus_bus" depart="674.52" departLane="best" from="-1051477230" to="629542312#0"/>
    <trip id="bus158" type="bus_bus" depart="678.82" departLane="best" from="232940458#0" to="31610728#9"/>
    <trip id="bus159" type="bus_bus" depart="683.11" departLane="best" departSpeed="max" from="33804566#0" to="27774099#1"/>
    <trip id="bus160" type="bus_bus" depart="687.41" departLane="best" from="-8455846#0" to="17983654#3"/>
    <trip id="bus161" type="bus_bus" depart="691.70" departLane="best" from="27445634#1" to="-60213816#8"/>
    <trip id="bus162" type="bus_bus" depart="696.00" departLane="best" from="-53751544#8" to="53137992"/>
    <trip id="bus163" type="bus_bus" depart="700.30" departLane="best" from="31610728#32" to="-53065915#3"/>
    <trip id="bus164" type="bus_bus" depart="704.59" departLane="best" from="53353063#2" to="1179914083#0"/>
    <trip id="bus165" type="bus_bus" depart="708.89" departLane="best" from="1120032499" to="495535221#3"/>
    <trip id="bus166" type="bus_bus" depart="713.19" departLane="best" from="-23652105#1" to="1268720909"/>
    <trip id="bus167" type="bus_bus" depart="717.48" departLane="best" from="652131238#0" to="-27775647#0"/>
    <trip id="bus168" type="bus_bus" depart="721.78" departLane="best" from="60213816#19" to="25171282#4"/>
    <trip id="bus169" type="bus_bus" depart="726.07" departLane="best" from="-476137153#5" to="23360193#1"/>
    <trip id="bus170" type="bus_bus" depart="730.37" departLane="best" from="-1003159244#2" to="-42922002#3"/>
    <trip id="bus171" type="bus_bus" depart="734.67" departLane="best" from="1268735689#3" to="23897778#7"/>
    <trip id="bus172" type="bus_bus" depart="738.96" departLane="best" from="26437422#3" to="160155263"/>
    <trip id="bus173" type="bus_bus" depart="743.26" departLane="best" from="1274163477" to="30134026#5"/>
    <trip id="bus174" type="bus_bus" depart="747.56" departLane="best" from="153955571#6" to="621781833#2"/>
    <trip id="bus175" type="bus_bus" depart="751.85" departLane="best" from="41211487#2" to="-25718555#6"/>
    <trip id="bus176" type="bus_bus" depart="756.15" departLane="best" from="-23029041#3" to="23029391#1"/>
    <trip id="bus177" type="bus_bus" depart="760.44" departLane="best" from="25715906#12" to="629487719#11"/>
    <trip id="bus178" type="bus_bus" depart="764.74" departLane="best" from="42922002#1" to="34474265#7"/>
    <trip id="bus181" type="bus_bus" depart="777.63" departLane="best" departSpeed="max" from="-34239931" to="17983654#2"/>
    <trip id="bus182" type="bus_bus" depart="781.93" departLane="best" from="53065915#4" to="187766389#0"/>
    <trip id="bus183" type="bus_bus" depart="786.22" departLane="best" from="1169939005" to="25715906#1"/>
    <trip id="bus186" type="bus_bus" depart="799.11" departLane="best" from="26536986#1" to="-1098037224#1"/>
    <trip id="bus187" type="bus_bus" depart="803.41" departLane="best" from="34474265#11" to="37262677#27"/>
    <trip id="bus188" type="bus_bus" depart="807.70" departLane="best" from="-23359798#1" to="-1270963868#1"/>
    <trip id="bus189" type="bus_bus" depart="812.00" departLane="best" from="-25991883#2" to="-79510496#2"/>
    <trip id="bus190" type="bus_bus" depart="816.30" departLane="best" from="621781805" to="-141250552#0"/>
    <trip id="bus191" type="bus_bus" depart="820.59" departLane="best" from="34519301#3" to="53162561"/>
    <trip id="bus192" type="bus_bus" depart="824.89" departLane="best" from="-141248951#6" to="41850466#1"/>
    <trip id="bus193" type="bus_bus" depart="829.19" departLane="best" from="24959989#3" to="761437568#5"/>
    <trip id="bus194" type="bus_bus" depart="833.48" departLane="best" from="58871871#1" to="25050962#1"/>
    <trip id="bus195" type="bus_bus" depart="837.78" departLane="best" from="31610728#30" to="22965547#1"/>
    <trip id="bus197" type="bus_bus" depart="846.37" departLane="best" from="153963756#10" to="37262677#30"/>
    <trip id="bus199" type="bus_bus" depart="854.96" departLane="best" from="35772495#13" to="23108042#0"/>
    <trip id="bus200" type="bus_bus" depart="859.26" departLane="best" departSpeed="max" from="25609926#0" to="-41211487#3"/>
    <trip id="bus201" type="bus_bus" depart="863.56" departLane="best" from="22973895#21" to="42922001#6"/>
    <trip id="bus202" type="bus_bus" depart="867.85" departLane="best" departSpeed="max" from="-383673950#3" to="-586374181#10"/>
    <trip id="bus203" type="bus_bus" depart="872.15" departLane="best" from="23332581#6" to="-24935548#2"/>
    <trip id="bus204" type="bus_bus" depart="876.44" departLane="best" from="-31610728#36" to="-29053478#1"/>
    <trip id="bus205" type="bus_bus" depart="880.74" departLane="best" from="-30134026#4" to="-172322040"/>
    <trip id="bus206" type="bus_bus" depart="885.04" departLane="best" departSpeed="max" from="1155574708#0" to="23359947#5"/>
    <trip id="bus207" type="bus_bus" depart="889.33" departLane="best" from="1170731255" to="-29053480#0"/>
    <trip id="bus208" type="bus_bus" depart="893.63" departLane="best" from="1193894778#0" to="625169347#1"/>
    <trip id="bus209" type="bus_bus" depart="897.93" departLane="best" from="-24212729#0" to="-29995742#2"/>
    <trip id="bus210" type="bus_bus" depart="902.22" departLane="best" from="53540055#0" to="37084647"/>
    <trip id="bus211" type="bus_bus" depart="906.52" departLane="best" from="-9725285#0" to="-1098037224#2"/>
    <trip id="bus212" type="bus_bus" depart="910.82" departLane="best" from="770074670#1" to="34555812#3"/>
    <trip id="bus213" type="bus_bus" depart="915.11" departLane="best" departSpeed="max" from="53353063#0" to="770525178#0"/>
    <trip id="bus214" type="bus_bus" depart="919.41" departLane="best" from="1183303174#2" to="34474265#16"/>
    <trip id="bus215" type="bus_bus" depart="923.70" departLane="best" from="23359683#2" to="25046250#1"/>
    <trip id="bus216" type="bus_bus" depart="928.00" departLane="best" departSpeed="max" from="-31101546#2" to="-31610728#11"/>
    <trip id="bus218" type="bus_bus" depart="936.59" departLane="best" from="1149340566#2" to="-25715906#6"/>
    <trip id="bus219" type="bus_bus" depart="940.89" departLane="best" from="15020166#5" to="38261112#0"/>
    <trip id="bus220" type="bus_bus" depart="945.19" departLane="best" from="-25424999#1" to="1269100198#0"/>
    <trip id="bus221" type="bus_bus" depart="949.48" departLane="best" from="-23897778#6" to="153963756#3"/>
    <trip id="bus223" type="bus_bus" depart="958.07" departLane="best" from="-28812281#1" to="-60213816#0"/>
    <trip id="bus224" type="bus_bus" depart="962.37" departLane="best" from="35772492#2" to="1056795859#2"/>
    <trip id="bus225" type="bus_bus" depart="966.67" departLane="best" from="34474265#18" to="47310570#0"/>
    <trip id="bus226" type="bus_bus" depart="970.96" departLane="best" from="34555813#3" to="-22973895#13"/>
    <trip id="bus227" type="bus_bus" depart="975.26" departLane="best" from="997599707" to="-771368477#1"/>
    <trip id="bus228" type="bus_bus" depart="979.56" departLane="best" departSpeed="max" from="26268124#0" to="-38279367"/>
    <trip id="bus229" type="bus_bus" depart="983.85" departLane="best" departSpeed="max" from="26284191" to="34555812#4"/>
    <trip id="bus230" type="bus_bus" depart="988.15" departLane="best" from="72493064#1" to="28094284#13"/>
    <trip id="bus231" type="bus_bus" depart="992.44" departLane="best" from="-1268191584#0" to="-25334373#0"/>
    <trip id="bus233" type="bus_bus" depart="1001.04" departLane="best" from="23567954#1" to="-314546034#3"/>
    <trip id="bus234" type="bus_bus" depart="1005.33" departLane="best" departSpeed="max" from="30016044#0" to="37262677#12"/>
    <trip id="bus235" type="bus_bus" depart="1009.63" departLane="best" from="-25715906#4" to="25049384#2"/>
    <trip id="bus237" type="bus_bus" depart="1018.22" departLane="best" from="429356219#1" to="23506269"/>
    <trip id="bus238" type="bus_bus" depart="1022.52" departLane="best" departSpeed="max" from="-23359947#5" to="-1268832025"/>
    <trip id="bus239" type="bus_bus" depart="1026.82" departLane="best" from="-53751544#12" to="-27775647#0"/>
    <trip id="bus240" type="bus_bus" depart="1031.11" departLane="best" from="31610728#11" to="-205798603#0"/>
    <trip id="bus241" type="bus_bus" depart="1035.41" departLane="best" from="286761871" to="25606923#1"/>
    <trip id="bus242" type="bus_bus" depart="1039.70" departLane="best" from="-23359713#4" to="37262677#5"/>
    <trip id="bus243" type="bus_bus" depart="1044.00" departLane="best" from="53137622" to="24974461#7"/>
    <trip id="bus244" type="bus_bus" depart="1048.30" departLane="best" departSpeed="max" from="-23564660#6" to="90018567#0"/>
    <trip id="bus245" type="bus_bus" depart="1052.59" departLane="best" from="316255056#0" to="-770074670#4"/>
    <trip id="bus246" type="bus_bus" depart="1056.89" departLane="best" from="1268716520" to="-953025939"/>
    <trip id="bus247" type="bus_bus" depart="1061.19" departLane="best" from="222427536#0" to="-72493046#0"/>
    <trip id="bus248" type="bus_bus" depart="1065.48" departLane="best" departSpeed="max" from="-23359729#4" to="802202483"/>
    <trip id="bus249" type="bus_bus" depart="1069.78" departLane="best" departSpeed="max" from="25715908" to="45965581#0"/>
    <trip id="bus250" type="bus_bus" depart="1074.07" departLane="best" from="318210196#1" to="828983442"/>
    <trip id="bus251" type="bus_bus" depart="1078.37" departLane="best" from="-38279367" to="4246128#1"/>
    <trip id="bus252" type="bus_bus" depart="1082.67" departLane="best" from="232170523#1" to="206312450"/>
    <trip id="bus253" type="bus_bus" depart="1086.96" departLane="best" from="-1271514687#0" to="318129574#0"/>
    <trip id="bus254" type="bus_bus" depart="1091.26" departLane="best" from="37717839#4" to="-34555813#0"/>
    <trip id="bus255" type="bus_bus" depart="1095.56" departLane="best" departSpeed="max" from="4546224#0" to="-23027887#6"/>
    <trip id="bus256" type="bus_bus" depart="1099.85" departLane="best" from="56434816" to="-34519301#0"/>
    <trip id="bus257" type="bus_bus" depart="1104.15" departLane="best" from="143725213#0" to="-25049824#3"/>
    <trip id="bus258" type="bus_bus" depart="1108.45" departLane="best" from="970313521#0" to="-1271541377#0"/>
    <trip id="bus259" type="bus_bus" depart="1112.74" departLane="best" from="53137990#4" to="27296270#1"/>
    <trip id="bus260" type="bus_bus" depart="1117.04" departLane="best" from="-29052537#1" to="41414188#2"/>
    <trip id="bus261" type="bus_bus" depart="1121.33" departLane="best" departSpeed="max" from="30133975#0" to="-41215071#1"/>
    <trip id="bus262" type="bus_bus" depart="1125.63" departLane="best" from="23897989#2" to="753537378#1"/>
    <trip id="bus263" type="bus_bus" depart="1129.93" departLane="best" from="-17407088#1" to="35772492#2"/>
    <trip id="bus264" type="bus_bus" depart="1134.22" departLane="best" from="17983654#5" to="-41215071#4"/>
    <trip id="bus265" type="bus_bus" depart="1138.52" departLane="best" from="-23108058#2" to="-31610728#2"/>
    <trip id="bus266" type="bus_bus" depart="1142.82" departLane="best" from="-28812281#0" to="53751544#3"/>
    <trip id="bus267" type="bus_bus" depart="1147.11" departLane="best" from="23897855#1" to="17407088#0"/>
    <trip id="bus268" type="bus_bus" depart="1151.41" departLane="best" from="230415530#3" to="1271514687#1"/>
    <trip id="bus270" type="bus_bus" depart="1160.00" departLane="best" from="-27464631#4" to="-23652015#2"/>
    <trip id="bus271" type="bus_bus" depart="1164.30" departLane="best" from="23108058#14" to="35772495#1"/>