<?xml version="1.0" encoding="UTF-8"?>

<!-- generated on 2024-04-21 13:03:45.143747 by osmWebWizard.py UNKNOWN
<configuration>
    <fringe-factor value="2"/>
    <fringe-start-attributes value="departSpeed=&quot;max&quot;"/>
    <insertion-density value="6.0"/>
    <max-distance value="8000.0"/>
    <net-file value="/Users/yasser/2024-04-21-13-03-17/osm.net.xml.gz"/>
    <remove-loops value="True"/>
    <route-file value="/Users/yasser/2024-04-21-13-03-17/osm.bicycle.rou.xml"/>
    <trip-attributes value="departLane=&quot;best&quot;"/>
    <output-trip-file value="/Users/yasser/2024-04-21-13-03-17/osm.bicycle.trips.xml"/>
    <prefix value="bike"/>
    <validate value="True"/>
    <vclass value="bicycle"/>
    <vehicle-class value="bicycle"/>
    <via-edge-types value="highway.motorway,highway.motorway_link,highway.trunk_link,highway.primary_link,highway.secondary_link,highway.tertiary_link"/>
</configuration>
-->

<!-- generated on 2024-04-21 13:03:42 by Eclipse SUMO duarouter Version 1.18.0
<configuration xmlns:xsi="http://www.w3.org/2001/XMLSchema-instance" xsi:noNamespaceSchemaLocation="http://sumo.dlr.de/xsd/duarouterConfiguration.xsd">

    <input>
        <net-file value="/Users/yasser/2024-04-21-13-03-17/osm.net.xml.gz"/>
        <route-files value="/Users/yasser/2024-04-21-13-03-17/osm.bicycle.trips.xml"/>
    </input>

    <output>
        <output-file value="/Users/yasser/2024-04-21-13-03-17/osm.bicycle.trips.xml.tmp"/>
        <alternatives-output value="NUL"/>
        <write-trips value="true"/>
    </output>

    <processing>
        <remove-loops value="true"/>
    </processing>

    <time>
        <begin value="0.0"/>
        <end value="3600.0"/>
    </time>

    <report>
        <no-warnings value="true"/>
        <ignore-errors value="true"/>
        <no-step-log value="true"/>
    </report>

</configuration>
-->

<routes xmlns:xsi="http://www.w3.org/2001/XMLSchema-instance" xsi:noNamespaceSchemaLocation="http://sumo.dlr.de/xsd/routes_file.xsd">
    <vType id="bike_bicycle" vClass="bicycle"/>
    <trip id="bike0" type="bike_bicycle" depart="0.00" departLane="best" from="23897655#1" to="-1075560428#0"/>
    <trip id="bike1" type="bike_bicycle" depart="1.56" departLane="best" from="53590784#0" to="-47074848#1"/>
    <trip id="bike2" type="bike_bicycle" depart="3.13" departLane="best" from="-377834141" to="37717839#4"/>
    <trip id="bike3" type="bike_bicycle" depart="4.69" departLane="best" from="58986944#0" to="-141250550"/>
    <trip id="bike4" type="bike_bicycle" depart="6.25" departLane="best" departSpeed="max" from="-638259146" to="-1084121795"/>
    <trip id="bike5" type="bike_bicycle" depart="7.82" departLane="best" from="-32905358#2" to="1268825168"/>
    <trip id="bike6" type="bike_bicycle" depart="9.38" departLane="best" from="-105332059#0" to="-34474265#5"/>
    <trip id="bike7" type="bike_bicycle" depart="10.95" departLane="best" from="24979080#5" to="222427536#0"/>
    <trip id="bike8" type="bike_bicycle" depart="12.51" departLane="best" from="-32936468#0" to="-25049296#3"/>
    <trip id="bike9" type="bike_bicycle" depart="14.07" departLane="best" from="54268239#2" to="104366406#1"/>
    <trip id="bike10" type="bike_bicycle" depart="15.64" departLane="best" from="-54264248#1" to="-457320727#1"/>
    <trip id="bike11" type="bike_bicycle" depart="17.20" departLane="best" departSpeed="max" from="-55450529" to="-27296869#1"/>
    <trip id="bike12" type="bike_bicycle" depart="18.76" departLane="best" from="-773158236#0" to="-58963185#0"/>
    <trip id="bike13" type="bike_bicycle" depart="20.33" departLane="best" departSpeed="max" from="-1266940286" to="17407088#0"/>
    <trip id="bike14" type="bike_bicycle" depart="21.89" departLane="best" departSpeed="max" from="55751878#0" to="261793254#1"/>
    <trip id="bike15" type="bike_bicycle" depart="23.45" departLane="best" from="54265987#0" to="53652009#1"/>
    <trip id="bike16" type="bike_bicycle" depart="25.02" departLane="best" departSpeed="max" from="1137861813#0" to="905215960#1"/>
    <trip id="bike17" type="bike_bicycle" depart="26.58" departLane="best" departSpeed="max" from="-57680598" to="23027887#1"/>
    <trip id="bike18" type="bike_bicycle" depart="28.15" departLane="best" from="55108649#3" to="-27774529#2"/>
    <trip id="bike19" type="bike_bicycle" depart="29.71" departLane="best" from="56658652#2" to="-23897730#1"/>
    <trip id="bike20" type="bike_bicycle" depart="31.27" departLane="best" from="31610725#3" to="-1149340558#0"/>
    <trip id="bike21" type="bike_bicycle" depart="32.84" departLane="best" from="35772493#5" to="-55108735#0"/>
    <trip id="bike22" type="bike_bicycle" depart="34.40" departLane="best" from="1219565791#0" to="-502143321#1"/>
    <trip id="bike24" type="bike_bicycle" depart="37.53" departLane="best" departSpeed="max" from="23652024" to="-671575662#0"/>
    <trip id="bike25" type="bike_bicycle" depart="39.09" departLane="best" from="-57383435#2" to="38523783#0"/>
    <trip id="bike26" type="bike_bicycle" depart="40.66" departLane="best" departSpeed="max" from="-53162437" to="763602805#3"/>
    <trip id="bike27" type="bike_bicycle" depart="42.22" departLane="best" from="24960028#5" to="27296270#7"/>
    <trip id="bike28" type="bike_bicycle" depart="43.78" departLane="best" from="-25991766#2" to="53649995#2"/>
    <trip id="bike29" type="bike_bicycle" depart="45.35" departLane="best" from="-25171322#3" to="-770074670#5"/>
    <trip id="bike30" type="bike_bicycle" depart="46.91" departLane="best" from="949527806" to="31304267#0"/>
    <trip id="bike31" type="bike_bicycle" depart="48.47" departLane="best" departSpeed="max" from="1202221235#0" to="41215071#4"/>
    <trip id="bike33" type="bike_bicycle" depart="51.60" departLane="best" from="-35772495#7" to="1089327571#1"/>
    <trip id="bike34" type="bike_bicycle" depart="53.16" departLane="best" from="-54355132" to="-54268243#0"/>
    <trip id="bike35" type="bike_bicycle" depart="54.73" departLane="best" from="-316256636#0" to="771398685"/>
    <trip id="bike36" type="bike_bicycle" depart="56.29" departLane="best" from="58116418#0" to="-56658605#1"/>
    <trip id="bike37" type="bike_bicycle" depart="57.86" departLane="best" from="-25171322#11" to="-93851926#2"/>
    <trip id="bike38" type="bike_bicycle" depart="59.42" departLane="best" from="629487682#1" to="1105385698#1"/>
    <trip id="bike39" type="bike_bicycle" depart="60.98" departLane="best" departSpeed="max" from="-52985023" to="53749334#1"/>
    <trip id="bike41" type="bike_bicycle" depart="64.11" departLane="best" from="130659485#2" to="-55751867"/>
    <trip id="bike42" type="bike_bicycle" depart="65.67" departLane="best" departSpeed="max" from="-59023402#1" to="437264985#0"/>
    <trip id="bike43" type="bike_bicycle" depart="67.24" departLane="best" from="977469389#2" to="1274152442#2"/>
    <trip id="bike45" type="bike_bicycle" depart="70.36" departLane="best" from="-143725210#8" to="290559687#0"/>
    <trip id="bike46" type="bike_bicycle" depart="71.93" departLane="best" from="-54151982#1" to="104749673"/>
    <trip id="bike47" type="bike_bicycle" depart="73.49" departLane="best" departSpeed="max" from="-1157016231" to="-771391054#0"/>
    <trip id="bike48" type="bike_bicycle" depart="75.06" departLane="best" from="977469371#1" to="-153955574"/>
    <trip id="bike49" type="bike_bicycle" depart="76.62" departLane="best" from="880664801#3" to="58872744#7"/>
    <trip id="bike50" type="bike_bicycle" depart="78.18" departLane="best" from="104366423#2" to="53272358"/>
    <trip id="bike51" type="bike_bicycle" depart="79.75" departLane="best" from="-27776381#0" to="17983654#6"/>
    <trip id="bike52" type="bike_bicycle" depart="81.31" departLane="best" departSpeed="max" from="-53157787#1" to="31319816#2"/>
    <trip id="bike53" type="bike_bicycle" depart="82.87" departLane="best" from="-153950038#1" to="-1098024160#0"/>
    <trip id="bike54" type="bike_bicycle" depart="84.44" departLane="best" from="-772742997#1" to="859025982"/>
    <trip id="bike56" type="bike_bicycle" depart="87.56" departLane="best" from="104749644#0" to="-30644475#1"/>
    <trip id="bike57" type="bike_bicycle" depart="89.13" departLane="best" departSpeed="max" from="62224346" to="58988919"/>
    <trip id="bike58" type="bike_bicycle" depart="90.69" departLane="best" departSpeed="max" from="-54182595#6" to="30750522#2"/>
    <trip id="bike59" type="bike_bicycle" depart="92.26" departLane="best" from="216862004#0" to="26437422#1"/>
    <trip id="bike60" type="bike_bicycle" depart="93.82" departLane="best" departSpeed="max" from="47378187#0" to="-952327190#0"/>
    <trip id="bike61" type="bike_bicycle" depart="95.38" departLane="best" from="53590772#0" to="153963756#5"/>
    <trip id="bike62" type="bike_bicycle" depart="96.95" departLane="best" departSpeed="max" from="-1006009522" to="-57683426#0"/>
    <trip id="bike63" type="bike_bicycle" depart="98.51" departLane="best" from="-105212915" to="-673394388#0"/>
    <trip id="bike64" type="bike_bicycle" depart="100.07" departLane="best" from="58481574#0" to="56956059"/>
    <trip id="bike65" type="bike_bicycle" depart="101.64" departLane="best" from="-54264268#0" to="1193905917#1"/>
    <trip id="bike66" type="bike_bicycle" depart="103.20" departLane="best" from="-58481558#1" to="790722845#1"/>
    <trip id="bike67" type="bike_bicycle" depart="104.76" departLane="best" departSpeed="max" from="-1230749149" to="-1193885192"/>
    <trip id="bike69" type="bike_bicycle" depart="107.89" departLane="best" from="490735065#1" to="-23897892#2"/>
    <trip id="bike70" type="bike_bicycle" depart="109.46" departLane="best" from="-965210310#0" to="22973895#3"/>
    <trip id="bike71" type="bike_bicycle" depart="111.02" departLane="best" from="52985977#1" to="59023390#5"/>
    <trip id="bike72" type="bike_bicycle" depart="112.58" departLane="best" from="880278100#0" to="-40617393"/>
    <trip id="bike73" type="bike_bicycle" depart="114.15" departLane="best" departSpeed="max" from="1149340567" to="53652009#2"/>
    <trip id="bike74" type="bike_bicycle" depart="115.71" departLane="best" from="-30644472#0" to="56181644#0"/>
    <trip id="bike75" type="bike_bicycle" depart="117.27" departLane="best" from="9725285#0" to="-317807126#1"/>
    <trip id="bike76" type="bike_bicycle" depart="118.84" departLane="best" departSpeed="max" from="-674801446" to="130659482#0"/>
    <trip id="bike77" type="bike_bicycle" depart="120.40" departLane="best" from="187027852#4" to="-47087478#6"/>
    <trip id="bike78" type="bike_bicycle" depart="121.97" departLane="best" departSpeed="max" from="-55376299#1" to="25046286#2"/>
    <trip id="bike79" type="bike_bicycle" depart="123.53" departLane="best" departSpeed="max" from="-37140955" to="-445457970#0"/>
    <trip id="bike80" type="bike_bicycle" depart="125.09" departLane="best" departSpeed="max" from="-1176372463" to="-30133975#13"/>
    <trip id="bike81" type="bike_bicycle" depart="126.66" departLane="best" from="-35772495#6" to="64625174#1"/>
    <trip id="bike82" type="bike_bicycle" depart="128.22" departLane="best" from="56658605#1" to="-1265391659"/>
    <trip id="bike83" type="bike_bicycle" depart="129.78" departLane="best" from="-40617393" to="35772494#0"/>
    <trip id="bike84" type="bike_bicycle" depart="131.35" departLane="best" departSpeed="max" from="-32784833#1" to="24935548#1"/>
    <trip id="bike85" type="bike_bicycle" depart="132.91" departLane="best" from="672420514#2" to="23564660#6"/>
    <trip id="bike86" type="bike_bicycle" depart="134.47" departLane="best" from="-946101318#1" to="55072161#1"/>
    <trip id="bike87" type="bike_bicycle" depart="136.04" departLane="best" from="542662637" to="-32800099#0"/>
    <trip id="bike88" type="bike_bicycle" depart="137.60" departLane="best" from="-1271885718#3" to="105331962#1"/>
    <trip id="bike89" type="bike_bicycle" depart="139.17" departLane="best" from="-179325099#5" to="1149318401"/>
    <trip id="bike90" type="bike_bicycle" depart="140.73" departLane="best" from="35772495#1" to="37262677#22"/>
    <trip id="bike91" type="bike_bicycle" depart="142.29" departLane="best" departSpeed="max" from="916879866" to="178992647#1"/>
    <trip id="bike92" type="bike_bicycle" depart="143.86" departLane="best" from="60213816#8" to="764387408"/>
    <trip id="bike93" type="bike_bicycle" depart="145.42" departLane="best" from="56658652#2" to="53753220"/>
    <trip id="bike94" type="bike_bicycle" depart="146.98" departLane="best" from="-28094284#9" to="108334942"/>
    <trip id="bike95" type="bike_bicycle" depart="148.55" departLane="best" departSpeed="max" from="-638259146" to="-55064499#0"/>
    <trip id="bike96" type="bike_bicycle" depart="150.11" departLane="best" from="-47074851#0" to="17242158#3"/>
    <trip id="bike97" type="bike_bicycle" depart="151.67" departLane="best" departSpeed="max" from="-700225694#2" to="58872750#1"/>
    <trip id="bike98" type="bike_bicycle" depart="153.24" departLane="best" from="1178137321" to="-1158777574"/>
    <trip id="bike99" type="bike_bicycle" depart="154.80" departLane="best" departSpeed="max" from="996641656#0" to="57383478#1"/>
    <trip id="bike100" type="bike_bicycle" depart="156.37" departLane="best" from="880278106#2" to="689452953#8"/>
    <trip id="bike101" type="bike_bicycle" depart="157.93" departLane="best" from="-55751897#1" to="-28261910#1"/>
    <trip id="bike102" type="bike_bicycle" depart="159.49" departLane="best" from="-996641635#0" to="41211487#1"/>
    <trip id="bike103" type="bike_bicycle" depart="161.06" departLane="best" departSpeed="max" from="-59369741" to="-1202083397#3"/>
    <trip id="bike104" type="bike_bicycle" depart="162.62" departLane="best" departSpeed="max" from="-57682952" to="963223234#4"/>
    <trip id="bike105" type="bike_bicycle" depart="164.18" departLane="best" from="-52985977#3" to="55064535#2"/>
    <trip id="bike106" type="bike_bicycle" depart="165.75" departLane="best" departSpeed="max" from="-772744422#1" to="-105212889#0"/>
    <trip id="bike107" type="bike_bicycle" depart="167.31" departLane="best" departSpeed="max" from="79324567#0" to="980734776"/>
    <trip id="bike108" type="bike_bicycle" depart="168.87" departLane="best" from="1201357890#0" to="53162569#0"/>
    <trip id="bike109" type="bike_bicycle" depart="170.44" departLane="best" from="-24874189#3" to="-55482894#4"/>
    <trip id="bike110" type="bike_bicycle" depart="172.00" departLane="best" from="880278105#1" to="23897892#0"/>
    <trip id="bike111" type="bike_bicycle" depart="173.57" departLane="best" from="-55675392#0" to="54154332"/>
    <trip id="bike112" type="bike_bicycle" depart="175.13" departLane="best" from="-1137370346" to="24959852#4"/>
    <trip id="bike113" type="bike_bicycle" depart="176.69" departLane="best" from="105212889#3" to="58233225#1"/>
    <trip id="bike114" type="bike_bicycle" depart="178.26" departLane="best" from="-24974461#1" to="880278113#7"/>
    <trip id="bike115" type="bike_bicycle" depart="179.82" departLane="best" from="1223625250#1" to="-316255057#1"/>
    <trip id="bike116" type="bike_bicycle" depart="181.38" departLane="best" from="153955574" to="37262792#1"/>
    <trip id="bike117" type="bike_bicycle" depart="182.95" departLane="best" from="38261112#1" to="23368384#2"/>
    <trip id="bike119" type="bike_bicycle" depart="186.08" departLane="best" from="153955571#3" to="27774531#2"/>
    <trip id="bike120" type="bike_bicycle" depart="187.64" departLane="best" from="-629487714#0" to="24959815#0"/>
    <trip id="bike121" type="bike_bicycle" depart="189.20" departLane="best" departSpeed="max" from="1084121787#1" to="758792661#0"/>
    <trip id="bike122" type="bike_bicycle" depart="190.77" departLane="best" from="-31304267#0" to="53137991#4"/>
    <trip id="bike123" type="bike_bicycle" depart="192.33" departLane="best" departSpeed="max" from="-40928953#1" to="-946101316#1"/>
    <trip id="bike124" type="bike_bicycle" depart="193.89" departLane="best" from="-27296270#5" to="-55668872#4"/>
    <trip id="bike125" type="bike_bicycle" depart="195.46" departLane="best" from="-54355138#4" to="54180592"/>
    <trip id="bike126" type="bike_bicycle" depart="197.02" departLane="best" from="1179914083#2" to="854875410#0"/>
    <trip id="bike127" type="bike_bicycle" depart="198.58" departLane="best" departSpeed="max" from="988683512" to="983721903"/>
    <trip id="bike128" type="bike_bicycle" depart="200.15" departLane="best" from="-1190062200#0" to="-41112880"/>
    <trip id="bike129" type="bike_bicycle" depart="201.71" departLane="best" from="-52985977#3" to="-733242127#0"/>
    <trip id="bike130" type="bike_bicycle" depart="203.28" departLane="best" from="586374181#4" to="60495298#1"/>
    <trip id="bike131" type="bike_bicycle" depart="204.84" departLane="best" from="57383428#0" to="-27445634#9"/>
    <trip id="bike132" type="bike_bicycle" depart="206.40" departLane="best" from="-55108773#4" to="48183035#11"/>
    <trip id="bike133" type="bike_bicycle" depart="207.97" departLane="best" from="226444162#2" to="966040875#1"/>
    <trip id="bike134" type="bike_bicycle" depart="209.53" departLane="best" from="-25049824#5" to="-104695403#1"/>
    <trip id="bike136" type="bike_bicycle" depart="212.66" departLane="best" from="25718555#14" to="229987024#0"/>
    <trip id="bike137" type="bike_bicycle" depart="214.22" departLane="best" from="-23108058#5" to="-23359655#1"/>
    <trip id="bike138" type="bike_bicycle" depart="215.78" departLane="best" from="-141248951#9" to="-23027975#6"/>
    <trip id="bike139" type="bike_bicycle" depart="217.35" departLane="best" departSpeed="max" from="-53584228" to="26266176#1"/>
    <trip id="bike140" type="bike_bicycle" depart="218.91" departLane="best" from="32933273#0" to="-37179875#2"/>
    <trip id="bike142" type="bike_bicycle" depart="222.04" departLane="best" from="1002042615#0" to="64625174#1"/>
    <trip id="bike143" type="bike_bicycle" depart="223.60" departLane="best" from="-1112284385#0" to="-153955572#0"/>
    <trip id="bike144" type="bike_bicycle" depart="225.17" departLane="best" from="-648422776#3" to="-54905568#0"/>
    <trip id="bike145" type="bike_bicycle" depart="226.73" departLane="best" from="-102939290#1" to="-54355125#0"/>
    <trip id="bike146" type="bike_bicycle" depart="228.29" departLane="best" from="23652105#4" to="-54224060#2"/>
    <trip id="bike147" type="bike_bicycle" depart="229.86" departLane="best" from="40617393" to="1161214836#0"/>
    <trip id="bike148" type="bike_bicycle" depart="231.42" departLane="best" departSpeed="max" from="-659231798" to="-104749653#0"/>
    <trip id="bike149" type="bike_bicycle" depart="232.98" departLane="best" from="-1193885192" to="61670108#2"/>
    <trip id="bike150" type="bike_bicycle" depart="234.55" departLane="best" from="-61670119#1" to="226444162#2"/>
    <trip id="bike151" type="bike_bicycle" depart="236.11" departLane="best" from="-55108812" to="-24874189#3"/>
    <trip id="bike152" type="bike_bicycle" depart="237.68" departLane="best" from="-23652273#3" to="23897778#2"/>
    <trip id="bike153" type="bike_bicycle" depart="239.24" departLane="best" departSpeed="max" from="-54265969#2" to="629487719#9"/>
    <trip id="bike154" type="bike_bicycle" depart="240.80" departLane="best" from="54180571#1" to="58872744#5"/>
    <trip id="bike155" type="bike_bicycle" depart="242.37" departLane="best" from="60213816#17" to="-397118977#1"/>
    <trip id="bike156" type="bike_bicycle" depart="243.93" departLane="best" from="-47074848#0" to="-205798603#0"/>
    <trip id="bike157" type="bike_bicycle" depart="245.49" departLane="best" from="53590780#1" to="61670119#2"/>
    <trip id="bike158" type="bike_bicycle" depart="247.06" departLane="best" from="60499969#7" to="27788142#2"/>
    <trip id="bike159" type="bike_bicycle" depart="248.62" departLane="best" from="-24874189#1" to="689457023#1"/>
    <trip id="bike160" type="bike_bicycle" depart="250.18" departLane="best" from="56926852#0" to="916879857"/>
    <trip id="bike161" type="bike_bicycle" depart="251.75" departLane="best" from="543048018#0" to="610157555#0"/>
    <trip id="bike162" type="bike_bicycle" depart="253.31" departLane="best" from="-105331928#3" to="53753459#2"/>
    <trip id="bike164" type="bike_bicycle" depart="256.44" departLane="best" from="-54225061#0" to="58877110"/>
    <trip id="bike165" type="bike_bicycle" depart="258.00" departLane="best" from="129859236#2" to="-54265987#0"/>
    <trip id="bike166" type="bike_bicycle" depart="259.57" departLane="best" from="53753982#0" to="-23027887#1"/>
    <trip id="bike168" type="bike_bicycle" depart="262.69" departLane="best" departSpeed="max" from="-34290925#1" to="56143031#0"/>
    <trip id="bike170" type="bike_bicycle" depart="265.82" departLane="best" from="54180566#1" to="488842472"/>
    <trip id="bike171" type="bike_bicycle" depart="267.39" departLane="best" from="-105331832#2" to="32936296#1"/>
    <trip id="bike172" type="bike_bicycle" depart="268.95" departLane="best" departSpeed="max" from="-55102869#1" to="58879270"/>
    <trip id="bike173" type="bike_bicycle" depart="270.51" departLane="best" from="865189744#1" to="-55064514#1"/>
    <trip id="bike174" type="bike_bicycle" depart="272.08" departLane="best" from="-23897778#6" to="966039924"/>
    <trip id="bike175" type="bike_bicycle" depart="273.64" departLane="best" departSpeed="max" from="901455623" to="179325099#4"/>
    <trip id="bike176" type="bike_bicycle" depart="275.20" departLane="best" from="689452930#2" to="-23359655#0"/>
    <trip id="bike177" type="bike_bicycle" depart="276.77" departLane="best" from="880278114#1" to="30644475#0"/>
    <trip id="bike178" type="bike_bicycle" depart="278.33" departLane="best" from="8455846#3" to="-54264248#0"/>
    <trip id="bike179" type="bike_bicycle" depart="279.89" departLane="best" from="143725210#0" to="1056795856#0"/>
    <trip id="bike180" type="bike_bicycle" depart="281.46" departLane="best" from="35772494#1" to="-56541879#4"/>
    <trip id="bike181" type="bike_bicycle" depart="283.02" departLane="best" from="198151738#1" to="129661361#16"/>
    <trip id="bike182" type="bike_bicycle" depart="284.59" departLane="best" from="53266550#1" to="-23897655#10"/>
    <trip id="bike183" type="bike_bicycle" depart="286.15" departLane="best" departSpeed="max" from="-490187066" to="502119395#1"/>
    <trip id="bike184" type="bike_bicycle" depart="287.71" departLane="best" from="-1026867106#2" to="689452953#1"/>
    <trip id="bike185" type="bike_bicycle" depart="289.28" departLane="best" from="1149340558#1" to="53266550#0"/>
    <trip id="bike186" type="bike_bicycle" depart="290.84" departLane="best" departSpeed="max" from="40668320" to="35772495#8"/>
    <trip id="bike187" type="bike_bicycle" depart="292.40" departLane="best" from="56658637#6" to="-1263070880"/>
    <trip id="bike188" type="bike_bicycle" depart="293.97" departLane="best" from="25718555#7" to="-58481553#1"/>
    <trip id="bike189" type="bike_bicycle" depart="295.53" departLane="best" from="-54355127#0" to="57887030#4"/>
    <trip id="bike191" type="bike_bicycle" depart="298.66" departLane="best" from="-54268242#1" to="102834146"/>
    <trip id="bike192" type="bike_bicycle" depart="300.22" departLane="best" from="60213816#4" to="-55482836#5"/>
    <trip id="bike194" type="bike_bicycle" depart="303.35" departLane="best" from="689452953#6" to="-377447968#3"/>
    <trip id="bike195" type="bike_bicycle" depart="304.91" departLane="best" from="61670092#1" to="-27774100#3"/>
    <trip id="bike196" type="bike_bicycle" depart="306.48" departLane="best" from="-54188232#1" to="22912059#1"/>
    <trip id="bike197" type="bike_bicycle" depart="308.04" departLane="best" from="953023601#1" to="55108671#1"/>
    <trip id="bike198" type="bike_bicycle" depart="309.60" departLane="best" departSpeed="max" from="-662986564" to="23897989#2"/>
    <trip id="bike199" type="bike_bicycle" depart="311.17" departLane="best" from="25171185" to="1137588752"/>
    <trip id="bike200" type="bike_bicycle" depart="312.73" departLane="best" departSpeed="max" from="-689457022" to="-41211487#1"/>
    <trip id="bike201" type="bike_bicycle" depart="314.29" departLane="best" from="-952327190#0" to="629542265"/>
    <trip id="bike202" type="bike_bicycle" depart="315.86" departLane="best" from="-54180571#0" to="-290561075#2"/>
    <trip id="bike203" type="bike_bicycle" depart="317.42" departLane="best" departSpeed="max" from="-1230749135#1" to="129834935"/>
    <trip id="bike204" type="bike_bicycle" depart="318.99" departLane="best" from="23369681#1" to="-58871871#3"/>
    <trip id="bike205" type="bike_bicycle" depart="320.55" departLane="best" departSpeed="max" from="54603235" to="54180574#0"/>
    <trip id="bike206" type="bike_bicycle" depart="322.11" departLane="best" from="-27359750#3" to="47087478#4"/>
    <trip id="bike207" type="bike_bicycle" depart="323.68" departLane="best" from="30644470#2" to="-107363371#0"/>
    <trip id="bike208" type="bike_bicycle" depart="325.24" departLane="best" from="-42922001#5" to="1158219584#1"/>
    <trip id="bike209" type="bike_bicycle" depart="326.80" departLane="best" from="55760604#0" to="-1266940290#0"/>
    <trip id="bike210" type="bike_bicycle" depart="328.37" departLane="best" departSpeed="max" from="-62154992" to="290701820"/>
    <trip id="bike211" type="bike_bicycle" depart="329.93" departLane="best" from="290561153#2" to="445493001#1"/>
    <trip id="bike212" type="bike_bicycle" depart="331.50" departLane="best" from="-544076444" to="53590797#0"/>
    <trip id="bike213" type="bike_bicycle" depart="333.06" departLane="best" from="-25171322#6" to="-1041523193#1"/>
    <trip id="bike214" type="bike_bicycle" depart="334.62" departLane="best" from="-42922001#14" to="54355113#0"/>
    <trip id="bike215" type="bike_bicycle" depart="336.19" departLane="best" from="-141248951#5" to="105212908#1"/>
    <trip id="bike216" type="bike_bicycle" depart="337.75" departLane="best" from="-26381926#4" to="1232837785"/>
    <trip id="bike217" type="bike_bicycle" depart="339.31" departLane="best" from="-1075560430#4" to="-1158777569#0"/>
    <trip id="bike218" type="bike_bicycle" depart="340.88" departLane="best" from="-457320729#2" to="57887031#1"/>
    <trip id="bike219" type="bike_bicycle" depart="342.44" departLane="best" from="-629487719#4" to="55482894#5"/>
    <trip id="bike220" type="bike_bicycle" depart="344.00" departLane="best" from="26219674#3" to="966059486"/>
    <trip id="bike221" type="bike_bicycle" depart="345.57" departLane="best" from="153963755#2" to="823787193#1"/>
    <trip id="bike222" type="bike_bicycle" depart="347.13" departLane="best" from="58966331#4" to="-27464631#7"/>
    <trip id="bike223" type="bike_bicycle" depart="348.70" departLane="best" from="-32936468#1" to="1268720909"/>
    <trip id="bike224" type="bike_bicycle" depart="350.26" departLane="best" from="-55108675" to="22912059#1"/>
    <trip id="bike225" type="bike_bicycle" depart="351.82" departLane="best" from="59170907#2" to="54151965#0"/>
    <trip id="bike226" type="bike_bicycle" depart="353.39" departLane="best" from="-963223234#4" to="54182604#2"/>
    <trip id="bike228" type="bike_bicycle" depart="356.51" departLane="best" from="490735065#1" to="-141105517#1"/>
    <trip id="bike229" type="bike_bicycle" depart="358.08" departLane="best" from="828798884#1" to="-544076444"/>
    <trip id="bike230" type="bike_bicycle" depart="359.64" departLane="best" from="-1202083398" to="-55108645#0"/>
    <trip id="bike231" type="bike_bicycle" depart="361.20" departLane="best" from="-53540055#2" to="-57355091#2"/>
    <trip id="bike232" type="bike_bicycle" depart="362.77" departLane="best" from="-1149340789" to="-25049384#8"/>
    <trip id="bike233" type="bike_bicycle" depart="364.33" departLane="best" from="-37262677#20" to="437264985#3"/>
    <trip id="bike234" type="bike_bicycle" depart="365.90" departLane="best" from="31610728#29" to="-1227239258"/>
    <trip id="bike235" type="bike_bicycle" depart="367.46" departLane="best" from="-61670108#3" to="215834436#4"/>
    <trip id="bike236" type="bike_bicycle" depart="369.02" departLane="best" departSpeed="max" from="-62155022" to="-37262792#1"/>
    <trip id="bike237" type="bike_bicycle" depart="370.59" departLane="best" from="-629487719#12" to="64625169#0"/>
    <trip id="bike238" type="bike_bicycle" depart="372.15" departLane="best" from="130659482#1" to="44499515#5"/>
    <trip id="bike239" type="bike_bicycle" depart="373.71" departLane="best" from="-56182054#1" to="54268238#3"/>
    <trip id="bike240" type="bike_bicycle" depart="375.28" departLane="best" departSpeed="max" from="-57885545" to="-104366408"/>
    <trip id="bike241" type="bike_bicycle" depart="376.84" departLane="best" departSpeed="max" from="-55802511" to="54182595#5"/>
    <trip id="bike242" type="bike_bicycle" depart="378.40" departLane="best" from="56143005#4" to="854875410#0"/>
    <trip id="bike243" type="bike_bicycle" depart="379.97" departLane="best" from="-629487709#0" to="54153652"/>
    <trip id="bike244" type="bike_bicycle" depart="381.53" departLane="best" from="1161214836#1" to="-25997550#1"/>
    <trip id="bike245" type="bike_bicycle" depart="383.10" departLane="best" from="32936468#1" to="437264985#1"/>
    <trip id="bike246" type="bike_bicycle" depart="384.66" departLane="best" departSpeed="max" from="-672420513#5" to="108224574#1"/>
    <trip id="bike247" type="bike_bicycle" depart="386.22" departLane="best" from="-55131358#2" to="383673950#0"/>
    <trip id="bike248" type="bike_bicycle" depart="387.79" departLane="best" departSpeed="max" from="-60495210#1" to="28094284#10"/>
    <trip id="bike249" type="bike_bicycle" depart="389.35" departLane="best" departSpeed="max" from="-908264484" to="23897778#3"/>
    <trip id="bike250" type="bike_bicycle" depart="390.91" departLane="best" from="23107420#7" to="-1080594268"/>
    <trip id="bike251" type="bike_bicycle" depart="392.48" departLane="best" departSpeed="max" from="-58872750#1" to="23359947#4"/>