<?xml version="1.0" encoding="UTF-8"?>

<!-- generated on 2024-06-05 10:23:38 by Eclipse SUMO netedit Version 1.18.0
-->

<additional xmlns:xsi="http://www.w3.org/2001/XMLSchema-instance" xsi:noNamespaceSchemaLocation="http://sumo.dlr.de/xsd/additional_file.xsd">
    <!-- StoppingPlaces -->
    <parkingArea id="PA-1051477126#0" lane="-1051477126#0_0" roadsideCapacity="3" width="2.50" length="5.00"/>
    <parkingArea id="PA-107262238" lane="-107262238_0" roadsideCapacity="3" width="2.50" length="5.00"/>
    <parkingArea id="PA-1084121795" lane="-1084121795_1" roadsideCapacity="1" width="2.50" length="5.00"/>
    <parkingArea id="PA-1098029905" lane="-1098029905_0" roadsideCapacity="1" width="2.50" length="5.00"/>
    <parkingArea id="PA-1098037224#0" lane="-1098037224#0_0" roadsideCapacity="1" width="2.50" length="5.00"/>
    <parkingArea id="PA-1098037224#2" lane="-1098037224#2_0" roadsideCapacity="1" width="2.50" length="5.00"/>
    <parkingArea id="PA-1101220712#2" lane="-1101220712#2_0" roadsideCapacity="2" width="2.50" length="5.00"/>
    <parkingArea id="PA-1111162056" lane="-1111162056_2" roadsideCapacity="1" width="2.50" length="5.00"/>
    <parkingArea id="PA-1118676626#2" lane="-1118676626#2_1" roadsideCapacity="1" width="2.50" length="5.00"/>
    <parkingArea id="PA-1118676626#4" lane="-1118676626#4_1" roadsideCapacity="1" width="2.50" length="5.00"/>
    <parkingArea id="PA-1119168428#1" lane="-1119168428#1_1" roadsideCapacity="1" width="2.50" length="5.00"/>
    <parkingArea id="PA-1149340567" lane="-1149340567_0" roadsideCapacity="1" width="2.50" length="5.00"/>
    <parkingArea id="PA-115728080#3" lane="-115728080#3_1" roadsideCapacity="1" width="2.50" length="5.00"/>
    <parkingArea id="PA-115728080#4" lane="-115728080#4_1" roadsideCapacity="1" width="2.50" length="5.00"/>
    <parkingArea id="PA-115728080#6" lane="-115728080#6_1" roadsideCapacity="2" width="2.50" length="5.00"/>
    <parkingArea id="PA-1158216788#1" lane="-1158216788#1_0" roadsideCapacity="3" width="2.50" length="5.00"/>
    <parkingArea id="PA-1158227192#1" lane="-1158227192#1_0" roadsideCapacity="1" width="2.50" length="5.00"/>
    <parkingArea id="PA-1193885191#2" lane="-1193885191#2_0" roadsideCapacity="2" width="2.50" length="5.00"/>
    <parkingArea id="PA-1268191584#1" lane="-1268191584#1_0" roadsideCapacity="1" width="2.50" length="5.00"/>
    <parkingArea id="PA-1268735689#1" lane="-1268735689#1_0" roadsideCapacity="2" width="2.50" length="5.00"/>
    <parkingArea id="PA-1268735689#2" lane="-1268735689#2_0" roadsideCapacity="3" width="2.50" length="5.00"/>
    <parkingArea id="PA-1268832633" lane="-1268832633_0" roadsideCapacity="3" width="2.50" length="5.00"/>
    <parkingArea id="PA-1269100198#0" lane="-1269100198#0_0" roadsideCapacity="1" width="2.50" length="5.00"/>
    <parkingArea id="PA-1269100198#1" lane="-1269100198#1_0" roadsideCapacity="1" width="2.50" length="5.00"/>
    <parkingArea id="PA-1270963868#0" lane="-1270963868#0_1" roadsideCapacity="1" width="2.50" length="5.00"/>
    <parkingArea id="PA-1270963871#0" lane="-1270963871#0_1" roadsideCapacity="3" width="2.50" length="5.00"/>
    <parkingArea id="PA-1271658949" lane="-1271658949_0" roadsideCapacity="3" width="2.50" length="5.00"/>
    <parkingArea id="PA-1272009307" lane="-1272009307_2" roadsideCapacity="1" width="2.50" length="5.00"/>
    <parkingArea id="PA-1272538174#3" lane="-1272538174#3_0" roadsideCapacity="1" width="2.50" length="5.00"/>
    <parkingArea id="PA-1272538174#5" lane="-1272538174#5_0" roadsideCapacity="1" width="2.50" length="5.00"/>
    <parkingArea id="PA-1274152442#5" lane="-1274152442#5_0" roadsideCapacity="1" width="2.50" length="5.00"/>
    <parkingArea id="PA-1274154382#1" lane="-1274154382#1_0" roadsideCapacity="3" width="2.50" length="5.00"/>
    <parkingArea id="PA-129762171#2" lane="-129762171#2_0" roadsideCapacity="1" width="2.50" length="5.00"/>
    <parkingArea id="PA-129762171#3" lane="-129762171#3_0" roadsideCapacity="3" width="2.50" length="5.00"/>
    <parkingArea id="PA-129762171#5" lane="-129762171#5_0" roadsideCapacity="3" width="2.50" length="5.00"/>
    <parkingArea id="PA-129762171#6" lane="-129762171#6_0" roadsideCapacity="1" width="2.50" length="5.00"/>
    <parkingArea id="PA-130095725#2" lane="-130095725#2_0" roadsideCapacity="1" width="2.50" length="5.00"/>
    <parkingArea id="PA-130095726#0" lane="-130095726#0_0" roadsideCapacity="1" width="2.50" length="5.00"/>
    <parkingArea id="PA-130659482#0" lane="-130659482#0_0" roadsideCapacity="1" width="2.50" length="5.00"/>
    <parkingArea id="PA-130659485#0" lane="-130659485#0_0" roadsideCapacity="2" width="2.50" length="5.00"/>
    <parkingArea id="PA-130659485#2" lane="-130659485#2_0" roadsideCapacity="1" width="2.50" length="5.00"/>
    <parkingArea id="PA-130661237#0" lane="-130661237#0_0" roadsideCapacity="2" width="2.50" length="5.00"/>
    <parkingArea id="PA-141105517#1" lane="-141105517#1_0" roadsideCapacity="1" width="2.50" length="5.00"/>
    <parkingArea id="PA-141248951#4" lane="-141248951#4_1" roadsideCapacity="1" width="2.50" length="5.00"/>
    <parkingArea id="PA-141248951#7" lane="-141248951#7_1" roadsideCapacity="1" width="2.50" length="5.00"/>
    <parkingArea id="PA-141248951#8" lane="-141248951#8_1" roadsideCapacity="1" width="2.50" length="5.00"/>
    <parkingArea id="PA-141250552#7" lane="-141250552#7_0" roadsideCapacity="1" width="2.50" length="5.00"/>
    <parkingArea id="PA-141816387#1" lane="-141816387#1_1" roadsideCapacity="1" width="2.50" length="5.00"/>
    <parkingArea id="PA-143725210#11" lane="-143725210#11_1" roadsideCapacity="1" width="2.50" length="5.00"/>
    <parkingArea id="PA-143725210#3" lane="-143725210#3_1" roadsideCapacity="1" width="2.50" length="5.00"/>
    <parkingArea id="PA-143725210#6" lane="-143725210#6_1" roadsideCapacity="1" width="2.50" length="5.00"/>
    <parkingArea id="PA-143725210#8" lane="-143725210#8_1" roadsideCapacity="1" width="2.50" length="5.00"/>
    <parkingArea id="PA-147010682#1" lane="-147010682#1_0" roadsideCapacity="1" width="2.50" length="5.00"/>
    <parkingArea id="PA-147010682#2" lane="-147010682#2_0" roadsideCapacity="1" width="2.50" length="5.00"/>
    <parkingArea id="PA-152358482" lane="-152358482_1" roadsideCapacity="1" width="2.50" length="5.00"/>
    <parkingArea id="PA-153955573#1" lane="-153955573#1_0" roadsideCapacity="3" width="2.50" length="5.00"/>
    <parkingArea id="PA-153963756#3" lane="-153963756#3_1" roadsideCapacity="1" width="2.50" length="5.00"/>
    <parkingArea id="PA-153963756#5" lane="-153963756#5_1" roadsideCapacity="1" width="2.50" length="5.00"/>
    <parkingArea id="PA-153963756#8" lane="-153963756#8_1" roadsideCapacity="1" width="2.50" length="5.00"/>
    <parkingArea id="PA-160612048#4" lane="-160612048#4_0" roadsideCapacity="3" width="2.50" length="5.00"/>
    <parkingArea id="PA-163237896#1" lane="-163237896#1_0" roadsideCapacity="1" width="2.50" length="5.00"/>
    <parkingArea id="PA-173567743" lane="-173567743_0" roadsideCapacity="3" width="2.50" length="5.00"/>
    <parkingArea id="PA-177015214#2" lane="-177015214#2_1" roadsideCapacity="1" width="2.50" length="5.00"/>
    <parkingArea id="PA-17983654#10" lane="-17983654#10_0" roadsideCapacity="1" width="2.50" length="5.00"/>
    <parkingArea id="PA-17983654#2" lane="-17983654#2_0" roadsideCapacity="1" width="2.50" length="5.00"/>
    <parkingArea id="PA-187027852#1" lane="-187027852#1_0" roadsideCapacity="1" width="2.50" length="5.00"/>
    <parkingArea id="PA-19543046" lane="-19543046_0" roadsideCapacity="2" width="2.50" length="5.00"/>
    <parkingArea id="PA-19543195" lane="-19543195_0" roadsideCapacity="1" width="2.50" length="5.00"/>
    <parkingArea id="PA-198151738#3" lane="-198151738#3_0" roadsideCapacity="1" width="2.50" length="5.00"/>
    <parkingArea id="PA-220520559#0" lane="-220520559#0_1" roadsideCapacity="1" width="2.50" length="5.00"/>
    <parkingArea id="PA-220874572" lane="-220874572_0" roadsideCapacity="1" width="2.50" length="5.00"/>
    <parkingArea id="PA-22736006#1" lane="-22736006#1_1" roadsideCapacity="2" width="2.50" length="5.00"/>
    <parkingArea id="PA-22736006#2" lane="-22736006#2_1" roadsideCapacity="1" width="2.50" length="5.00"/>
    <parkingArea id="PA-22736006#3" lane="-22736006#3_1" roadsideCapacity="1" width="2.50" length="5.00"/>
    <parkingArea id="PA-22736007#4" lane="-22736007#4_2" roadsideCapacity="2" width="2.50" length="5.00"/>
    <parkingArea id="PA-22912129" lane="-22912129_1" roadsideCapacity="2" width="2.50" length="5.00"/>
    <parkingArea id="PA-22973895#17" lane="-22973895#17_0" roadsideCapacity="1" width="2.50" length="5.00"/>
    <parkingArea id="PA-22973895#21" lane="-22973895#21_0" roadsideCapacity="1" width="2.50" length="5.00"/>
    <parkingArea id="PA-22973895#22" lane="-22973895#22_0" roadsideCapacity="1" width="2.50" length="5.00"/>
    <parkingArea id="PA-22973895#7" lane="-22973895#7_0" roadsideCapacity="1" width="2.50" length="5.00"/>
    <parkingArea id="PA-23027887#0" lane="-23027887#0_0" roadsideCapacity="1" width="2.50" length="5.00"/>
    <parkingArea id="PA-23027887#2" lane="-23027887#2_0" roadsideCapacity="1" width="2.50" length="5.00"/>
    <parkingArea id="PA-23027887#5" lane="-23027887#5_0" roadsideCapacity="2" width="2.50" length="5.00"/>
    <parkingArea id="PA-23027975#6" lane="-23027975#6_1" roadsideCapacity="1" width="2.50" length="5.00"/>
    <parkingArea id="PA-23029391#1" lane="-23029391#1_0" roadsideCapacity="1" width="2.50" length="5.00"/>
    <parkingArea id="PA-230415530#0" lane="-230415530#0_2" roadsideCapacity="2" width="2.50" length="5.00"/>
    <parkingArea id="PA-230415530#1" lane="-230415530#1_2" roadsideCapacity="3" width="2.50" length="5.00"/>
    <parkingArea id="PA-230415530#3" lane="-230415530#3_2" roadsideCapacity="1" width="2.50" length="5.00"/>
    <parkingArea id="PA-23066913#2" lane="-23066913#2_1" roadsideCapacity="3" width="2.50" length="5.00"/>
    <parkingArea id="PA-23091788" lane="-23091788_0" roadsideCapacity="1" width="2.50" length="5.00"/>
    <parkingArea id="PA-23108042#1" lane="-23108042#1_1" roadsideCapacity="1" width="2.50" length="5.00"/>
    <parkingArea id="PA-23108058#0" lane="-23108058#0_0" roadsideCapacity="2" width="2.50" length="5.00"/>
    <parkingArea id="PA-23108058#12" lane="-23108058#12_0" roadsideCapacity="1" width="2.50" length="5.00"/>
    <parkingArea id="PA-23108058#5" lane="-23108058#5_0" roadsideCapacity="1" width="2.50" length="5.00"/>
    <parkingArea id="PA-23332581#4" lane="-23332581#4_0" roadsideCapacity="1" width="2.50" length="5.00"/>
    <parkingArea id="PA-23341784#0" lane="-23341784#0_1" roadsideCapacity="1" width="2.50" length="5.00"/>
    <parkingArea id="PA-23341784#2" lane="-23341784#2_1" roadsideCapacity="1" width="2.50" length="5.00"/>
    <parkingArea id="PA-23350836" lane="-23350836_0" roadsideCapacity="3" width="2.50" length="5.00"/>
    <parkingArea id="PA-23353578#0" lane="-23353578#0_1" roadsideCapacity="1" width="2.50" length="5.00"/>
    <parkingArea id="PA-23359655#1" lane="-23359655#1_0" roadsideCapacity="1" width="2.50" length="5.00"/>
    <parkingArea id="PA-23359655#2" lane="-23359655#2_0" roadsideCapacity="1" width="2.50" length="5.00"/>
    <parkingArea id="PA-23359763#0" lane="-23359763#0_0" roadsideCapacity="1" width="2.50" length="5.00"/>
    <parkingArea id="PA-23359763#1" lane="-23359763#1_0" roadsideCapacity="3" width="2.50" length="5.00"/>
    <parkingArea id="PA-23359782#1" lane="-23359782#1_0" roadsideCapacity="1" width="2.50" length="5.00"/>
    <parkingArea id="PA-23360007#1" lane="-23360007#1_0" roadsideCapacity="1" width="2.50" length="5.00"/>
    <parkingArea id="PA-23360007#8" lane="-23360007#8_0" roadsideCapacity="1" width="2.50" length="5.00"/>
    <parkingArea id="PA-23360056#0" lane="-23360056#0_0" roadsideCapacity="1" width="2.50" length="5.00"/>
    <parkingArea id="PA-23360088#1" lane="-23360088#1_0" roadsideCapacity="2" width="2.50" length="5.00"/>
    <parkingArea id="PA-23360193#0" lane="-23360193#0_0" roadsideCapacity="1" width="2.50" length="5.00"/>
    <parkingArea id="PA-23361426#1" lane="-23361426#1_0" roadsideCapacity="2" width="2.50" length="5.00"/>
    <parkingArea id="PA-23368384#5" lane="-23368384#5_0" roadsideCapacity="3" width="2.50" length="5.00"/>
    <parkingArea id="PA-23368384#6" lane="-23368384#6_0" roadsideCapacity="1" width="2.50" length="5.00"/>
    <parkingArea id="PA-23368384#8" lane="-23368384#8_0" roadsideCapacity="1" width="2.50" length="5.00"/>
    <parkingArea id="PA-23564565#2" lane="-23564565#2_1" roadsideCapacity="1" width="2.50" length="5.00"/>
    <parkingArea id="PA-23564568#2" lane="-23564568#2_0" roadsideCapacity="1" width="2.50" length="5.00"/>
    <parkingArea id="PA-23564660#3" lane="-23564660#3_1" roadsideCapacity="3" width="2.50" length="5.00"/>
    <parkingArea id="PA-23652004#2" lane="-23652004#2_0" roadsideCapacity="3" width="2.50" length="5.00"/>
    <parkingArea id="PA-23652015#2" lane="-23652015#2_0" roadsideCapacity="1" width="2.50" length="5.00"/>
    <parkingArea id="PA-23652069#0" lane="-23652069#0_1" roadsideCapacity="3" width="2.50" length="5.00"/>
    <parkingArea id="PA-23652069#2" lane="-23652069#2_1" roadsideCapacity="1" width="2.50" length="5.00"/>
    <parkingArea id="PA-23652085#0" lane="-23652085#0_0" roadsideCapacity="1" width="2.50" length="5.00"/>
    <parkingArea id="PA-23652104#1" lane="-23652104#1_0" roadsideCapacity="1" width="2.50" length="5.00"/>
    <parkingArea id="PA-23652105#3" lane="-23652105#3_0" roadsideCapacity="2" width="2.50" length="5.00"/>
    <parkingArea id="PA-23652165#1" lane="-23652165#1_1" roadsideCapacity="2" width="2.50" length="5.00"/>
    <parkingArea id="PA-23652208#1" lane="-23652208#1_1" roadsideCapacity="1" width="2.50" length="5.00"/>
    <parkingArea id="PA-23652210#1" lane="-23652210#1_0" roadsideCapacity="1" width="2.50" length="5.00"/>
    <parkingArea id="PA-23652273#13" lane="-23652273#13_0" roadsideCapacity="1" width="2.50" length="5.00"/>
    <parkingArea id="PA-23652273#3" lane="-23652273#3_0" roadsideCapacity="1" width="2.50" length="5.00"/>
    <parkingArea id="PA-23897655#4" lane="-23897655#4_1" roadsideCapacity="1" width="2.50" length="5.00"/>
    <parkingArea id="PA-23897655#7" lane="-23897655#7_1" roadsideCapacity="3" width="2.50" length="5.00"/>
    <parkingArea id="PA-23897718#1" lane="-23897718#1_1" roadsideCapacity="3" width="2.50" length="5.00"/>
    <parkingArea id="PA-23897778#3" lane="-23897778#3_0" roadsideCapacity="3" width="2.50" length="5.00"/>
    <parkingArea id="PA-23897778#6" lane="-23897778#6_0" roadsideCapacity="1" width="2.50" length="5.00"/>
    <parkingArea id="PA-23897778#7" lane="-23897778#7_0" roadsideCapacity="3" width="2.50" length="5.00"/>
    <parkingArea id="PA-24212729#1" lane="-24212729#1_0" roadsideCapacity="1" width="2.50" length="5.00"/>
    <parkingArea id="PA-24212729#2" lane="-24212729#2_0" roadsideCapacity="1" width="2.50" length="5.00"/>
    <parkingArea id="PA-24212729#4" lane="-24212729#4_0" roadsideCapacity="1" width="2.50" length="5.00"/>
    <parkingArea id="PA-24212729#6" lane="-24212729#6_0" roadsideCapacity="1" width="2.50" length="5.00"/>
    <parkingArea id="PA-24250309#0" lane="-24250309#0_1" roadsideCapacity="3" width="2.50" length="5.00"/>
    <parkingArea id="PA-24250309#2" lane="-24250309#2_1" roadsideCapacity="2" width="2.50" length="5.00"/>
    <parkingArea id="PA-24250309#3" lane="-24250309#3_1" roadsideCapacity="1" width="2.50" length="5.00"/>
    <parkingArea id="PA-24250310" lane="-24250310_1" roadsideCapacity="1" width="2.50" length="5.00"/>
    <parkingArea id="PA-24250313#1" lane="-24250313#1_1" roadsideCapacity="1" width="2.50" length="5.00"/>
    <parkingArea id="PA-24250313#2" lane="-24250313#2_1" roadsideCapacity="1" width="2.50" length="5.00"/>
    <parkingArea id="PA-24250314" lane="-24250314_1" roadsideCapacity="3" width="2.50" length="5.00"/>
    <parkingArea id="PA-24611286#1" lane="-24611286#1_0" roadsideCapacity="3" width="2.50" length="5.00"/>
    <parkingArea id="PA-24959815#0" lane="-24959815#0_0" roadsideCapacity="1" width="2.50" length="5.00"/>
    <parkingArea id="PA-24959815#1" lane="-24959815#1_0" roadsideCapacity="1" width="2.50" length="5.00"/>
    <parkingArea id="PA-24974143#0" lane="-24974143#0_0" roadsideCapacity="3" width="2.50" length="5.00"/>
    <parkingArea id="PA-24974188" lane="-24974188_0" roadsideCapacity="1" width="2.50" length="5.00"/>
    <parkingArea id="PA-24974461#1" lane="-24974461#1_0" roadsideCapacity="1" width="2.50" length="5.00"/>
    <parkingArea id="PA-24974461#4" lane="-24974461#4_0" roadsideCapacity="1" width="2.50" length="5.00"/>
    <parkingArea id="PA-24978752#0" lane="-24978752#0_0" roadsideCapacity="1" width="2.50" length="5.00"/>
    <parkingArea id="PA-25046286#1" lane="-25046286#1_0" roadsideCapacity="2" width="2.50" length="5.00"/>
    <parkingArea id="PA-25049078" lane="-25049078_0" roadsideCapacity="3" width="2.50" length="5.00"/>
    <parkingArea id="PA-25049296#0" lane="-25049296#0_1" roadsideCapacity="1" width="2.50" length="5.00"/>
    <parkingArea id="PA-25049296#1" lane="-25049296#1_1" roadsideCapacity="3" width="2.50" length="5.00"/>
    <parkingArea id="PA-25049386#2" lane="-25049386#2_0" roadsideCapacity="1" width="2.50" length="5.00"/>
    <parkingArea id="PA-25049386#3" lane="-25049386#3_0" roadsideCapacity="3" width="2.50" length="5.00"/>
    <parkingArea id="PA-25049824#3" lane="-25049824#3_0" roadsideCapacity="1" width="2.50" length="5.00"/>
    <parkingArea id="PA-25049824#6" lane="-25049824#6_0" roadsideCapacity="1" width="2.50" length="5.00"/>
    <parkingArea id="PA-25191675#0" lane="-25191675#0_0" roadsideCapacity="1" width="2.50" length="5.00"/>
    <parkingArea id="PA-25334373#0" lane="-25334373#0_1" roadsideCapacity="1" width="2.50" length="5.00"/>
    <parkingArea id="PA-25334373#10" lane="-25334373#10_1" roadsideCapacity="1" width="2.50" length="5.00"/>
    <parkingArea id="PA-25424989#1" lane="-25424989#1_1" roadsideCapacity="1" width="2.50" length="5.00"/>
    <parkingArea id="PA-25425034#0" lane="-25425034#0_0" roadsideCapacity="1" width="2.50" length="5.00"/>
    <parkingArea id="PA-25568017#1" lane="-25568017#1_1" roadsideCapacity="3" width="2.50" length="5.00"/>
    <parkingArea id="PA-25568017#5" lane="-25568017#5_1" roadsideCapacity="1" width="2.50" length="5.00"/>
    <parkingArea id="PA-25568017#6" lane="-25568017#6_1" roadsideCapacity="3" width="2.50" length="5.00"/>
    <parkingArea id="PA-25606923#1" lane="-25606923#1_1" roadsideCapacity="1" width="2.50" length="5.00"/>
    <parkingArea id="PA-25609926#0" lane="-25609926#0_1" roadsideCapacity="3" width="2.50" length="5.00"/>
    <parkingArea id="PA-25609926#4" lane="-25609926#4_1" roadsideCapacity="3" width="2.50" length="5.00"/>
    <parkingArea id="PA-25609926#5" lane="-25609926#5_1" roadsideCapacity="1" width="2.50" length="5.00"/>
    <parkingArea id="PA-25609926#6" lane="-25609926#6_1" roadsideCapacity="1" width="2.50" length="5.00"/>
    <parkingArea id="PA-25609927#0" lane="-25609927#0_0" roadsideCapacity="1" width="2.50" length="5.00"/>
    <parkingArea id="PA-25715906#12" lane="-25715906#12_0" roadsideCapacity="1" width="2.50" length="5.00"/>
    <parkingArea id="PA-25715906#6" lane="-25715906#6_0" roadsideCapacity="1" width="2.50" length="5.00"/>
    <parkingArea id="PA-25715910#3" lane="-25715910#3_1" roadsideCapacity="3" width="2.50" length="5.00"/>
    <parkingArea id="PA-25715910#4" lane="-25715910#4_1" roadsideCapacity="1" width="2.50" length="5.00"/>
    <parkingArea id="PA-25718555#0" lane="-25718555#0_0" roadsideCapacity="1" width="2.50" length="5.00"/>
    <parkingArea id="PA-25718555#12" lane="-25718555#12_0" roadsideCapacity="1" width="2.50" length="5.00"/>
    <parkingArea id="PA-25718555#14" lane="-25718555#14_0" roadsideCapacity="1" width="2.50" length="5.00"/>
    <parkingArea id="PA-25718555#16" lane="-25718555#16_0" roadsideCapacity="1" width="2.50" length="5.00"/>
    <parkingArea id="PA-25718555#17" lane="-25718555#17_0" roadsideCapacity="1" width="2.50" length="5.00"/>
    <parkingArea id="PA-25718555#3" lane="-25718555#3_0" roadsideCapacity="1" width="2.50" length="5.00"/>
    <parkingArea id="PA-25718555#5" lane="-25718555#5_0" roadsideCapacity="1" width="2.50" length="5.00"/>
    <parkingArea id="PA-25718555#6" lane="-25718555#6_0" roadsideCapacity="1" width="2.50" length="5.00"/>
    <parkingArea id="PA-25718555#9" lane="-25718555#9_0" roadsideCapacity="1" width="2.50" length="5.00"/>
    <parkingArea id="PA-25991823#1" lane="-25991823#1_0" roadsideCapacity="1" width="2.50" length="5.00"/>
    <parkingArea id="PA-25991823#2" lane="-25991823#2_0" roadsideCapacity="1" width="2.50" length="5.00"/>
    <parkingArea id="PA-25991823#3" lane="-25991823#3_0" roadsideCapacity="1" width="2.50" length="5.00"/>
    <parkingArea id="PA-25997550#2" lane="-25997550#2_1" roadsideCapacity="2" width="2.50" length="5.00"/>
    <parkingArea id="PA-261793254#0" lane="-261793254#0_0" roadsideCapacity="3" width="2.50" length="5.00"/>
    <parkingArea id="PA-261793254#1" lane="-261793254#1_0" roadsideCapacity="2" width="2.50" length="5.00"/>
    <parkingArea id="PA-26268126" lane="-26268126_0" roadsideCapacity="2" width="2.50" length="5.00"/>
    <parkingArea id="PA-26351769#1" lane="-26351769#1_1" roadsideCapacity="1" width="2.50" length="5.00"/>
    <parkingArea id="PA-26536910#1" lane="-26536910#1_1" roadsideCapacity="1" width="2.50" length="5.00"/>
    <parkingArea id="PA-26536986#2" lane="-26536986#2_0" roadsideCapacity="1" width="2.50" length="5.00"/>
    <parkingArea id="PA-27036595#1" lane="-27036595#1_0" roadsideCapacity="1" width="2.50" length="5.00"/>
    <parkingArea id="PA-27296270#3" lane="-27296270#3_0" roadsideCapacity="1" width="2.50" length="5.00"/>
    <parkingArea id="PA-27296270#7" lane="-27296270#7_0" roadsideCapacity="1" width="2.50" length="5.00"/>
    <parkingArea id="PA-27359757#1" lane="-27359757#1_0" roadsideCapacity="1" width="2.50" length="5.00"/>
    <parkingArea id="PA-27359757#2" lane="-27359757#2_0" roadsideCapacity="1" width="2.50" length="5.00"/>
    <parkingArea id="PA-27410903#3" lane="-27410903#3_0" roadsideCapacity="1" width="2.50" length="5.00"/>
    <parkingArea id="PA-27410936#1" lane="-27410936#1_0" roadsideCapacity="1" width="2.50" length="5.00"/>
    <parkingArea id="PA-27464631#4" lane="-27464631#4_2" roadsideCapacity="1" width="2.50" length="5.00"/>
    <parkingArea id="PA-27770978#0" lane="-27770978#0_0" roadsideCapacity="3" width="2.50" length="5.00"/>
    <parkingArea id="PA-27770978#4" lane="-27770978#4_0" roadsideCapacity="3" width="2.50" length="5.00"/>
    <parkingArea id="PA-27774092" lane="-27774092_0" roadsideCapacity="1" width="2.50" length="5.00"/>
    <parkingArea id="PA-27774100#0" lane="-27774100#0_0" roadsideCapacity="1" width="2.50" length="5.00"/>
    <parkingArea id="PA-27774100#1" lane="-27774100#1_0" roadsideCapacity="1" width="2.50" length="5.00"/>
    <parkingArea id="PA-27774100#4" lane="-27774100#4_0" roadsideCapacity="1" width="2.50" length="5.00"/>
    <parkingArea id="PA-27774529#1" lane="-27774529#1_1" roadsideCapacity="1" width="2.50" length="5.00"/>
    <parkingArea id="PA-27775647#1" lane="-27775647#1_0" roadsideCapacity="1" width="2.50" length="5.00"/>
    <parkingArea id="PA-27775647#3" lane="-27775647#3_0" roadsideCapacity="1" width="2.50" length="5.00"/>
    <parkingArea id="PA-27788142#1" lane="-27788142#1_0" roadsideCapacity="1" width="2.50" length="5.00"/>
    <parkingArea id="PA-27788807#1" lane="-27788807#1_1" roadsideCapacity="3" width="2.50" length="5.00"/>
    <parkingArea id="PA-28094284#12" lane="-28094284#12_0" roadsideCapacity="1" width="2.50" length="5.00"/>
    <parkingArea id="PA-28094284#13" lane="-28094284#13_0" roadsideCapacity="1" width="2.50" length="5.00"/>
    <parkingArea id="PA-28094284#8" lane="-28094284#8_0" roadsideCapacity="1" width="2.50" length="5.00"/>
    <parkingArea id="PA-28261910#0" lane="-28261910#0_0" roadsideCapacity="3" width="2.50" length="5.00"/>
    <parkingArea id="PA-28492646#1" lane="-28492646#1_1" roadsideCapacity="1" width="2.50" length="5.00"/>
    <parkingArea id="PA-29052537#0" lane="-29052537#0_0" roadsideCapacity="1" width="2.50" length="5.00"/>
    <parkingArea id="PA-29052537#1" lane="-29052537#1_0" roadsideCapacity="3" width="2.50" length="5.00"/>
    <parkingArea id="PA-29053322" lane="-29053322_0" roadsideCapacity="1" width="2.50" length="5.00"/>
    <parkingArea id="PA-290586813" lane="-290586813_1" roadsideCapacity="3" width="2.50" length="5.00"/>
    <parkingArea id="PA-30016043#1" lane="-30016043#1_1" roadsideCapacity="3" width="2.50" length="5.00"/>
    <parkingArea id="PA-30016044#4" lane="-30016044#4_1" roadsideCapacity="1" width="2.50" length="5.00"/>
    <parkingArea id="PA-30134026#3" lane="-30134026#3_0" roadsideCapacity="1" width="2.50" length="5.00"/>
    <parkingArea id="PA-30134026#5" lane="-30134026#5_0" roadsideCapacity="1" width="2.50" length="5.00"/>
    <parkingArea id="PA-30644478#1" lane="-30644478#1_0" roadsideCapacity="1" width="2.50" length="5.00"/>
    <parkingArea id="PA-30750522#0" lane="-30750522#0_0" roadsideCapacity="1" width="2.50" length="5.00"/>
    <parkingArea id="PA-30750522#2" lane="-30750522#2_0" roadsideCapacity="1" width="2.50" length="5.00"/>
    <parkingArea id="PA-314546034#1" lane="-314546034#1_0" roadsideCapacity="1" width="2.50" length="5.00"/>
    <parkingArea id="PA-314546034#2" lane="-314546034#2_0" roadsideCapacity="1" width="2.50" length="5.00"/>
    <parkingArea id="PA-314546034#3" lane="-314546034#3_0" roadsideCapacity="1" width="2.50" length="5.00"/>
    <parkingArea id="PA-31610725#1" lane="-31610725#1_1" roadsideCapacity="2" width="2.50" length="5.00"/>
    <parkingArea id="PA-31610725#2" lane="-31610725#2_1" roadsideCapacity="1" width="2.50" length="5.00"/>
    <parkingArea id="PA-31610728#11" lane="-31610728#11_1" roadsideCapacity="1" width="2.50" length="5.00"/>
    <parkingArea id="PA-31610728#19" lane="-31610728#19_1" roadsideCapacity="1" width="2.50" length="5.00"/>
    <parkingArea id="PA-31610728#28" lane="-31610728#28_1" roadsideCapacity="1" width="2.50" length="5.00"/>
    <parkingArea id="PA-31610728#31" lane="-31610728#31_1" roadsideCapacity="1" width="2.50" length="5.00"/>
    <parkingArea id="PA-31610728#6" lane="-31610728#6_1" roadsideCapacity="1" width="2.50" length="5.00"/>
    <parkingArea id="PA-31610728#8" lane="-31610728#8_1" roadsideCapacity="1" width="2.50" length="5.00"/>
    <parkingArea id="PA-31610728#9" lane="-31610728#9_1" roadsideCapacity="1" width="2.50" length="5.00"/>
    <parkingArea id="PA-316256626#7" lane="-316256626#7_0" roadsideCapacity="2" width="2.50" length="5.00"/>
    <parkingArea id="PA-316256631#0" lane="-316256631#0_0" roadsideCapacity="1" width="2.50" length="5.00"/>
    <parkingArea id="PA-316256635#0" lane="-316256635#0_0" roadsideCapacity="1" width="2.50" length="5.00"/>
    <parkingArea id="PA-316256636#1" lane="-316256636#1_0" roadsideCapacity="3" width="2.50" length="5.00"/>
    <parkingArea id="PA-316256636#2" lane="-316256636#2_0" roadsideCapacity="1" width="2.50" length="5.00"/>
    <parkingArea id="PA-316256637#0" lane="-316256637#0_1" roadsideCapacity="1" width="2.50" length="5.00"/>
    <parkingArea id="PA-316256637#2" lane="-316256637#2_1" roadsideCapacity="1" width="2.50" length="5.00"/>
    <parkingArea id="PA-31971030#0" lane="-31971030#0_0" roadsideCapacity="1" width="2.50" length="5.00"/>
    <parkingArea id="PA-32728681#3" lane="-32728681#3_0" roadsideCapacity="2" width="2.50" length="5.00"/>
    <parkingArea id="PA-32903764#0" lane="-32903764#0_2" roadsideCapacity="1" width="2.50" length="5.00"/>
    <parkingArea id="PA-33804566#0" lane="-33804566#0_0" roadsideCapacity="2" width="2.50" length="5.00"/>
    <parkingArea id="PA-34290925#0" lane="-34290925#0_0" roadsideCapacity="1" width="2.50" length="5.00"/>
    <parkingArea id="PA-34290925#1" lane="-34290925#1_0" roadsideCapacity="2" width="2.50" length="5.00"/>
    <parkingArea id="PA-34290926#0" lane="-34290926#0_0" roadsideCapacity="2" width="2.50" length="5.00"/>
    <parkingArea id="PA-34294585#0" lane="-34294585#0_0" roadsideCapacity="2" width="2.50" length="5.00"/>
    <parkingArea id="PA-34294586" lane="-34294586_0" roadsideCapacity="3" width="2.50" length="5.00"/>
    <parkingArea id="PA-34519301#2" lane="-34519301#2_0" roadsideCapacity="1" width="2.50" length="5.00"/>
    <parkingArea id="PA-34519301#3" lane="-34519301#3_0" roadsideCapacity="1" width="2.50" length="5.00"/>
    <parkingArea id="PA-34555812#2" lane="-34555812#2_0" roadsideCapacity="1" width="2.50" length="5.00"/>
    <parkingArea id="PA-34555812#3" lane="-34555812#3_0" roadsideCapacity="1" width="2.50" length="5.00"/>
    <parkingArea id="PA-34555813#5" lane="-34555813#5_0" roadsideCapacity="1" width="2.50" length="5.00"/>
    <parkingArea id="PA-34555813#7" lane="-34555813#7_0" roadsideCapacity="3" width="2.50" length="5.00"/>
    <parkingArea id="PA-34768931#0" lane="-34768931#0_1" roadsideCapacity="1" width="2.50" length="5.00"/>
    <parkingArea id="PA-35772493#2" lane="-35772493#2_0" roadsideCapacity="1" width="2.50" length="5.00"/>
    <parkingArea id="PA-35772493#4" lane="-35772493#4_0" roadsideCapacity="3" width="2.50" length="5.00"/>
    <parkingArea id="PA-35772493#6" lane="-35772493#6_0" roadsideCapacity="1" width="2.50" length="5.00"/>
    <parkingArea id="PA-35772495#12" lane="-35772495#12_0" roadsideCapacity="1" width="2.50" length="5.00"/>
    <parkingArea id="PA-35772495#4" lane="-35772495#4_0" roadsideCapacity="1" width="2.50" length="5.00"/>
    <parkingArea id="PA-35772495#6" lane="-35772495#6_0" roadsideCapacity="1" width="2.50" length="5.00"/>
    <parkingArea id="PA-35772495#8" lane="-35772495#8_0" roadsideCapacity="1" width="2.50" length="5.00"/>
    <parkingArea id="PA-37262677#13" lane="-37262677#13_0" roadsideCapacity="1" width="2.50" length="5.00"/>