<?xml version='1.0' encoding='utf-8'?>
<additional xmlns:xsi="http://www.w3.org/2001/XMLSchema-instance" xsi:noNamespaceSchemaLocation="http://sumo.dlr.de/xsd/additional_file.xsd">

    <rerouter id="10152065052" edges="25171322#8">
        <interval begin="0.0" end="86400">
             
            <parkingAreaReroute id="10152065052" visible="true" /> 
        </interval>
    </rerouter>

    <rerouter id="10152091453" edges="34474265#5">
        <interval begin="0.0" end="86400">
             
            <parkingAreaReroute id="10152091453" visible="true" /> 
        </interval>
    </rerouter>

    <rerouter id="10543728919" edges="23652464#0">
        <interval begin="0.0" end="86400">
             
            <parkingAreaReroute id="10543728919" visible="true" /> 
            <parkingAreaReroute id="11258990911" visible="true" /> 
            <parkingAreaReroute id="11390832192" visible="true" /> 
            <parkingAreaReroute id="11390832190" visible="true" /> 
            <parkingAreaReroute id="11372294147" visible="true" /> 
            <parkingAreaReroute id="710907592" visible="true" /> 
            <parkingAreaReroute id="710907597" visible="true" /> 
            <parkingAreaReroute id="8838651727" visible="true" /> 
            <parkingAreaReroute id="8838651728" visible="true" /> 
            <parkingAreaReroute id="697236821" visible="true" /> 
            <parkingAreaReroute id="11372294143" visible="true" /> 
        </interval>
    </rerouter>

    <rerouter id="10785794282" edges="232170520#0">
        <interval begin="0.0" end="86400">
             
            <parkingAreaReroute id="10785794282" visible="true" /> 
            <parkingAreaReroute id="698825602" visible="true" /> 
            <parkingAreaReroute id="11419078672" visible="true" /> 
            <parkingAreaReroute id="9009659105" visible="true" /> 
            <parkingAreaReroute id="2711712831" visible="true" /> 
        </interval>
    </rerouter>

    <rerouter id="10785794283" edges="232170520#0">
        <interval begin="0.0" end="86400">
             
            <parkingAreaReroute id="10785794283" visible="true" /> 
            <parkingAreaReroute id="10785794282" visible="true" /> 
            <parkingAreaReroute id="698825602" visible="true" /> 
            <parkingAreaReroute id="11419078672" visible="true" /> 
            <parkingAreaReroute id="9009659105" visible="true" /> 
            <parkingAreaReroute id="2711712831" visible="true" /> 
        </interval>
    </rerouter>

    <rerouter id="10900394934" edges="17343012#5">
        <interval begin="0.0" end="86400">
             
            <parkingAreaReroute id="10900394934" visible="true" /> 
            <parkingAreaReroute id="683263078" visible="true" /> 
            <parkingAreaReroute id="357918241" visible="true" /> 
            <parkingAreaReroute id="6356230285" visible="true" /> 
        </interval>
    </rerouter>

    <rerouter id="11258990911" edges="476137153#0">
        <interval begin="0.0" end="86400">
             
            <parkingAreaReroute id="11258990911" visible="true" /> 
            <parkingAreaReroute id="8838651727" visible="true" /> 
            <parkingAreaReroute id="8838651728" visible="true" /> 
            <parkingAreaReroute id="10543728919" visible="true" /> 
            <parkingAreaReroute id="710907592" visible="true" /> 
            <parkingAreaReroute id="710907597" visible="true" /> 
            <parkingAreaReroute id="6708081023" visible="true" /> 
            <parkingAreaReroute id="11390832192" visible="true" /> 
        </interval>
    </rerouter>

    <rerouter id="11372294143" edges="44499681#2">
        <interval begin="0.0" end="86400">
             
            <parkingAreaReroute id="11372294143" visible="true" /> 
            <parkingAreaReroute id="9959223958" visible="true" /> 
            <parkingAreaReroute id="11372294147" visible="true" /> 
        </interval>
    </rerouter>

    <rerouter id="11372294147" edges="1170865431">
        <interval begin="0.0" end="86400">
             
            <parkingAreaReroute id="11372294147" visible="true" /> 
            <parkingAreaReroute id="11372294143" visible="true" /> 
            <parkingAreaReroute id="9959223958" visible="true" /> 
            <parkingAreaReroute id="697236821" visible="true" /> 
            <parkingAreaReroute id="9704458232" visible="true" /> 
            <parkingAreaReroute id="710755133" visible="true" /> 
        </interval>
    </rerouter>

    <rerouter id="11390832190" edges="130106500">
        <interval begin="0.0" end="86400">
             
            <parkingAreaReroute id="11390832190" visible="true" /> 
            <parkingAreaReroute id="11372294147" visible="true" /> 
            <parkingAreaReroute id="11258990911" visible="true" /> 
            <parkingAreaReroute id="10543728919" visible="true" /> 
            <parkingAreaReroute id="710907592" visible="true" /> 
            <parkingAreaReroute id="710907597" visible="true" /> 
            <parkingAreaReroute id="8838651727" visible="true" /> 
            <parkingAreaReroute id="8838651728" visible="true" /> 
            <parkingAreaReroute id="697236821" visible="true" /> 
            <parkingAreaReroute id="11372294143" visible="true" /> 
            <parkingAreaReroute id="9704458232" visible="true" /> 
        </interval>
    </rerouter>

    <rerouter id="11390832192" edges="130106500">
        <interval begin="0.0" end="86400">
             
            <parkingAreaReroute id="11390832192" visible="true" /> 
            <parkingAreaReroute id="11390832190" visible="true" /> 
            <parkingAreaReroute id="11372294147" visible="true" /> 
            <parkingAreaReroute id="11258990911" visible="true" /> 
            <parkingAreaReroute id="10543728919" visible="true" /> 
            <parkingAreaReroute id="710907592" visible="true" /> 
            <parkingAreaReroute id="710907597" visible="true" /> 
            <parkingAreaReroute id="8838651727" visible="true" /> 
            <parkingAreaReroute id="8838651728" visible="true" /> 
            <parkingAreaReroute id="697236821" visible="true" /> 
            <parkingAreaReroute id="11372294143" visible="true" /> 
        </interval>
    </rerouter>

    <rerouter id="11419078672" edges="47372949#0">
        <interval begin="0.0" end="86400">
             
            <parkingAreaReroute id="11419078672" visible="true" /> 
            <parkingAreaReroute id="9009659105" visible="true" /> 
            <parkingAreaReroute id="2711712831" visible="true" /> 
            <parkingAreaReroute id="2634087847" visible="true" /> 
            <parkingAreaReroute id="10785794283" visible="true" /> 
            <parkingAreaReroute id="2634087844" visible="true" /> 
            <parkingAreaReroute id="10785794282" visible="true" /> 
            <parkingAreaReroute id="207536847" visible="true" /> 
            <parkingAreaReroute id="677365940" visible="true" /> 
        </interval>
    </rerouter>

    <rerouter id="11803573687" edges="-17242225">
        <interval begin="0.0" end="86400">
             
            <parkingAreaReroute id="11803573687" visible="true" /> 
            <parkingAreaReroute id="679645541" visible="true" /> 
            <parkingAreaReroute id="6293406945" visible="true" /> 
            <parkingAreaReroute id="6293406937" visible="true" /> 
            <parkingAreaReroute id="671847217" visible="true" /> 
            <parkingAreaReroute id="671847233" visible="true" /> 
            <parkingAreaReroute id="357972918" visible="true" /> 
            <parkingAreaReroute id="357916696" visible="true" /> 
            <parkingAreaReroute id="369680305" visible="true" /> 
            <parkingAreaReroute id="6866515426" visible="true" /> 
            <parkingAreaReroute id="2029936602" visible="true" /> 
        </interval>
    </rerouter>

    <rerouter id="1435025176" edges="130659482">
        <interval begin="0.0" end="86400">
             
            <parkingAreaReroute id="1435025176" visible="true" /> 
            <parkingAreaReroute id="671847217" visible="true" /> 
            <parkingAreaReroute id="671847233" visible="true" /> 
            <parkingAreaReroute id="357972918" visible="true" /> 
            <parkingAreaReroute id="357916696" visible="true" /> 
            <parkingAreaReroute id="369680305" visible="true" /> 
            <parkingAreaReroute id="6866515426" visible="true" /> 
            <parkingAreaReroute id="2029936602" visible="true" /> 
            <parkingAreaReroute id="6866515436" visible="true" /> 
            <parkingAreaReroute id="387186273" visible="true" /> 
            <parkingAreaReroute id="3905282357" visible="true" /> 
        </interval>
    </rerouter>

    <rerouter id="1438389277" edges="-28452052#1">
        <interval begin="0.0" end="86400">
             
            <parkingAreaReroute id="1438389277" visible="true" /> 
            <parkingAreaReroute id="11390832192" visible="true" /> 
            <parkingAreaReroute id="11390832190" visible="true" /> 
            <parkingAreaReroute id="710907592" visible="true" /> 
            <parkingAreaReroute id="710907597" visible="true" /> 
        </interval>
    </rerouter>

    <rerouter id="2029936602" edges="-33804566#1">
        <interval begin="0.0" end="86400">
             
            <parkingAreaReroute id="2029936602" visible="true" /> 
            <parkingAreaReroute id="3905282357" visible="true" /> 
            <parkingAreaReroute id="357916696" visible="true" /> 
            <parkingAreaReroute id="369680305" visible="true" /> 
            <parkingAreaReroute id="6866515426" visible="true" /> 
            <parkingAreaReroute id="1435025176" visible="true" /> 
            <parkingAreaReroute id="6866515436" visible="true" /> 
            <parkingAreaReroute id="387186273" visible="true" /> 
            <parkingAreaReroute id="671847217" visible="true" /> 
            <parkingAreaReroute id="671847233" visible="true" /> 
            <parkingAreaReroute id="357972918" visible="true" /> 
        </interval>
    </rerouter>

    <rerouter id="207536847" edges="542665948#0">
        <interval begin="0.0" end="86400">
             
            <parkingAreaReroute id="207536847" visible="true" /> 
            <parkingAreaReroute id="9009659105" visible="true" /> 
            <parkingAreaReroute id="2711712831" visible="true" /> 
            <parkingAreaReroute id="2634087847" visible="true" /> 
            <parkingAreaReroute id="2634087844" visible="true" /> 
            <parkingAreaReroute id="10785794283" visible="true" /> 
            <parkingAreaReroute id="10785794282" visible="true" /> 
            <parkingAreaReroute id="677365940" visible="true" /> 
            <parkingAreaReroute id="697236821" visible="true" /> 
            <parkingAreaReroute id="698825602" visible="true" /> 
            <parkingAreaReroute id="11419078672" visible="true" /> 
        </interval>
    </rerouter>

    <rerouter id="2634087844" edges="542662641#1">
        <interval begin="0.0" end="86400">
             
            <parkingAreaReroute id="2634087844" visible="true" /> 
            <parkingAreaReroute id="316775573" visible="true" /> 
            <parkingAreaReroute id="4839983111" visible="true" /> 
            <parkingAreaReroute id="3695727291" visible="true" /> 
            <parkingAreaReroute id="3695729527" visible="true" /> 
            <parkingAreaReroute id="3891079338" visible="true" /> 
            <parkingAreaReroute id="3891079340" visible="true" /> 
        </interval>
    </rerouter>

    <rerouter id="2634087847" edges="542662641#1">
        <interval begin="0.0" end="86400">
             
            <parkingAreaReroute id="2634087847" visible="true" /> 
            <parkingAreaReroute id="2634087844" visible="true" /> 
            <parkingAreaReroute id="316775573" visible="true" /> 
            <parkingAreaReroute id="4839983111" visible="true" /> 
            <parkingAreaReroute id="3695727291" visible="true" /> 
            <parkingAreaReroute id="3695729527" visible="true" /> 
            <parkingAreaReroute id="3891079338" visible="true" /> 
            <parkingAreaReroute id="3891079340" visible="true" /> 
        </interval>
    </rerouter>

    <rerouter id="2711712831" edges="22329473">
        <interval begin="0.0" end="86400">
             
            <parkingAreaReroute id="2711712831" visible="true" /> 
            <parkingAreaReroute id="677365940" visible="true" /> 
            <parkingAreaReroute id="2634087847" visible="true" /> 
            <parkingAreaReroute id="2634087844" visible="true" /> 
        </interval>
    </rerouter>

    <rerouter id="316775573" edges="-685270734">
        <interval begin="0.0" end="86400">
             
            <parkingAreaReroute id="316775573" visible="true" /> 
            <parkingAreaReroute id="4839983111" visible="true" /> 
            <parkingAreaReroute id="2634087847" visible="true" /> 
            <parkingAreaReroute id="2634087844" visible="true" /> 
            <parkingAreaReroute id="207536847" visible="true" /> 
            <parkingAreaReroute id="2711712831" visible="true" /> 
        </interval>
    </rerouter>

    <rerouter id="357916696" edges="23359713#0">
        <interval begin="0.0" end="86400">
             
            <parkingAreaReroute id="357916696" visible="true" /> 
            <parkingAreaReroute id="387186273" visible="true" /> 
            <parkingAreaReroute id="369680305" visible="true" /> 
            <parkingAreaReroute id="1435025176" visible="true" /> 
            <parkingAreaReroute id="6866515436" visible="true" /> 
            <parkingAreaReroute id="2029936602" visible="true" /> 
            <parkingAreaReroute id="3905282357" visible="true" /> 
            <parkingAreaReroute id="671847217" visible="true" /> 
            <parkingAreaReroute id="671847233" visible="true" /> 
            <parkingAreaReroute id="357972918" visible="true" /> 
        </interval>
    </rerouter>

    <rerouter id="357918241" edges="41311467#0">
        <interval begin="0.0" end="86400">
             
            <parkingAreaReroute id="357918241" visible="true" /> 
            <parkingAreaReroute id="683263078" visible="true" /> 
            <parkingAreaReroute id="10900394934" visible="true" /> 
            <parkingAreaReroute id="679645527" visible="true" /> 
        </interval>
    </rerouter>

    <rerouter id="357972918" edges="23332581#1">
        <interval begin="0.0" end="86400">
             
            <parkingAreaReroute id="357972918" visible="true" /> 
            <parkingAreaReroute id="6293406945" visible="true" /> 
            <parkingAreaReroute id="6293406937" visible="true" /> 
            <parkingAreaReroute id="357916696" visible="true" /> 
            <parkingAreaReroute id="369680305" visible="true" /> 
            <parkingAreaReroute id="6866515426" visible="true" /> 
            <parkingAreaReroute id="2029936602" visible="true" /> 
            <parkingAreaReroute id="1435025176" visible="true" /> 
            <parkingAreaReroute id="679645527" visible="true" /> 
            <parkingAreaReroute id="6866515436" visible="true" /> 
            <parkingAreaReroute id="387186273" visible="true" /> 
        </interval>
    </rerouter>

    <rerouter id="3695727291" edges="-828798886">
        <interval begin="0.0" end="86400">
             
            <parkingAreaReroute id="3695727291" visible="true" /> 
            <parkingAreaReroute id="316775573" visible="true" /> 
            <parkingAreaReroute id="4839983111" visible="true" /> 
            <parkingAreaReroute id="3891079338" visible="true" /> 
            <parkingAreaReroute id="3891079340" visible="true" /> 
            <parkingAreaReroute id="2634087847" visible="true" /> 
            <parkingAreaReroute id="2634087844" visible="true" /> 
            <parkingAreaReroute id="6489283863" visible="true" /> 
        </interval>
    </rerouter>

    <rerouter id="3695729527" edges="-828798886">
        <interval begin="0.0" end="86400">
             
            <parkingAreaReroute id="3695729527" visible="true" /> 
            <parkingAreaReroute id="316775573" visible="true" /> 
            <parkingAreaReroute id="4839983111" visible="true" /> 
            <parkingAreaReroute id="3891079338" visible="true" /> 
            <parkingAreaReroute id="3891079340" visible="true" /> 
            <parkingAreaReroute id="2634087847" visible="true" /> 
            <parkingAreaReroute id="2634087844" visible="true" /> 
            <parkingAreaReroute id="6489283863" visible="true" /> 
        </interval>
    </rerouter>

    <rerouter id="369680305" edges="-130659485#5">
        <interval begin="0.0" end="86400">
             
            <parkingAreaReroute id="369680305" visible="true" /> 
            <parkingAreaReroute id="6866515436" visible="true" /> 
            <parkingAreaReroute id="1435025176" visible="true" /> 
        </interval>
    </rerouter>

    <rerouter id="387186273" edges="-23359713#2">
        <interval begin="0.0" end="86400">
             
            <parkingAreaReroute id="387186273" visible="true" /> 
            <parkingAreaReroute id="369680305" visible="true" /> 
            <parkingAreaReroute id="1435025176" visible="true" /> 
            <parkingAreaReroute id="6866515436" visible="true" /> 
            <parkingAreaReroute id="357916696" visible="true" /> 
            <parkingAreaReroute id="6866515426" visible="true" /> 
            <parkingAreaReroute id="2029936602" visible="true" /> 
            <parkingAreaReroute id="3905282357" visible="true" /> 
            <parkingAreaReroute id="671847217" visible="true" /> 
            <parkingAreaReroute id="671847233" visible="true" /> 
            <parkingAreaReroute id="357972918" visible="true" /> 
        </interval>
    </rerouter>

    <rerouter id="3891079338" edges="-27774100#4">
        <interval begin="0.0" end="86400">
             
            <parkingAreaReroute id="3891079338" visible="true" /> 
            <parkingAreaReroute id="3891079340" visible="true" /> 
        </interval>
    </rerouter>

    <rerouter id="3891079340" edges="-27774100#4">
        <interval begin="0.0" end="86400">
             
            <parkingAreaReroute id="3891079340" visible="true" /> 
        </interval>
    </rerouter>

    <rerouter id="3905282357" edges="33804566#0">
        <interval begin="0.0" end="86400">
             
            <parkingAreaReroute id="3905282357" visible="true" /> 
            <parkingAreaReroute id="357916696" visible="true" /> 
            <parkingAreaReroute id="369680305" visible="true" /> 
            <parkingAreaReroute id="6866515426" visible="true" /> 
            <parkingAreaReroute id="1435025176" visible="true" /> 
            <parkingAreaReroute id="6866515436" visible="true" /> 
            <parkingAreaReroute id="2029936602" visible="true" /> 
            <parkingAreaReroute id="387186273" visible="true" /> 
            <parkingAreaReroute id="671847217" visible="true" /> 
            <parkingAreaReroute id="671847233" visible="true" /> 
            <parkingAreaReroute id="357972918" visible="true" /> 
        </interval>
    </rerouter>

    <rerouter id="4662964930" edges="27774529#0">
        <interval begin="0.0" end="86400">
             
            <parkingAreaReroute id="4662964930" visible="true" /> 
        </interval>
    </rerouter>

    <rerouter id="4839983111" edges="542662636">
        <interval begin="0.0" end="86400">
             
            <parkingAreaReroute id="4839983111" visible="true" /> 
            <parkingAreaReroute id="2634087847" visible="true" /> 
            <parkingAreaReroute id="2634087844" visible="true" /> 
            <parkingAreaReroute id="207536847" visible="true" /> 
            <parkingAreaReroute id="2711712831" visible="true" /> 
            <parkingAreaReroute id="316775573" visible="true" /> 
            <parkingAreaReroute id="9009659105" visible="true" /> 
        </interval>
    </rerouter>

    <rerouter id="5006715813" edges="-17242225">
        <interval begin="0.0" end="86400">
             
            <parkingAreaReroute id="5006715813" visible="true" /> 
            <parkingAreaReroute id="679645541" visible="true" /> 
            <parkingAreaReroute id="6293406945" visible="true" /> 
            <parkingAreaReroute id="6293406937" visible="true" /> 
            <parkingAreaReroute id="671847217" visible="true" /> 
            <parkingAreaReroute id="671847233" visible="true" /> 
            <parkingAreaReroute id="357972918" visible="true" /> 
            <parkingAreaReroute id="357916696" visible="true" /> 
            <parkingAreaReroute id="369680305" visible="true" /> 
            <parkingAreaReroute id="6866515426" visible="true" /> 
            <parkingAreaReroute id="2029936602" visible="true" /> 
        </interval>
    </rerouter>

    <rerouter id="5570538880" edges="671575656">
        <interval begin="0.0" end="86400">
             
            <parkingAreaReroute id="5570538880" visible="true" /> 
            <parkingAreaReroute id="6953905901" visible="true" /> 
        </interval>
    </rerouter>

    <rerouter id="6293406937" edges="53839706">
        <interval begin="0.0" end="86400">
             
            <parkingAreaReroute id="6293406937" visible="true" /> 
            <parkingAreaReroute id="679645527" visible="true" /> 
            <parkingAreaReroute id="11803573687" visible="true" /> 
            <parkingAreaReroute id="5006715813" visible="true" /> 
            <parkingAreaReroute id="6318127723" visible="true" /> 
            <parkingAreaReroute id="679645541" visible="true" /> 
            <parkingAreaReroute id="671847217" visible="true" /> 
            <parkingAreaReroute id="671847233" visible="true" /> 
            <parkingAreaReroute id="357972918" visible="true" /> 
            <parkingAreaReroute id="357918241" visible="true" /> 
            <parkingAreaReroute id="357916696" visible="true" /> 
        </interval>
    </rerouter>

    <rerouter id="6293406945" edges="53839706">
        <interval begin="0.0" end="86400">
             
            <parkingAreaReroute id="6293406945" visible="true" /> 
            <parkingAreaReroute id="6293406937" visible="true" /> 
            <parkingAreaReroute id="679645527" visible="true" /> 
            <parkingAreaReroute id="11803573687" visible="true" /> 
            <parkingAreaReroute id="5006715813" visible="true" /> 
            <parkingAreaReroute id="6318127723" visible="true" /> 
            <parkingAreaReroute id="679645541" visible="true" /> 
            <parkingAreaReroute id="671847217" visible="true" /> 
            <parkingAreaReroute id="671847233" visible="true" /> 
            <parkingAreaReroute id="357972918" visible="true" /> 
        </interval>
    </rerouter>

    <rerouter id="6293583477" edges="671575656">
        <interval begin="0.0" end="86400">
             
            <parkingAreaReroute id="6293583477" visible="true" /> 
            <parkingAreaReroute id="5570538880" visible="true" /> 
            <parkingAreaReroute id="6953905901" visible="true" /> 
        </interval>
    </rerouter>

    <rerouter id="6318127723" edges="-17242225">
        <interval begin="0.0" end="86400">
             
            <parkingAreaReroute id="6318127723" visible="true" /> 
            <parkingAreaReroute id="679645541" visible="true" /> 
            <parkingAreaReroute id="6293406945" visible="true" /> 
            <parkingAreaReroute id="6293406937" visible="true" /> 
            <parkingAreaReroute id="671847217" visible="true" /> 
            <parkingAreaReroute id="671847233" visible="true" /> 
            <parkingAreaReroute id="357972918" visible="true" /> 
            <parkingAreaReroute id="357916696" visible="true" /> 
            <parkingAreaReroute id="369680305" visible="true" /> 
            <parkingAreaReroute id="6866515426" visible="true" /> 
            <parkingAreaReroute id="2029936602" visible="true" /> 
        </interval>
    </rerouter>

    <rerouter id="6356230285" edges="-8455846#2">
        <interval begin="0.0" end="86400">
             
            <parkingAreaReroute id="6356230285" visible="true" /> 
            <parkingAreaReroute id="6293583477" visible="true" /> 
            <parkingAreaReroute id="6953905901" visible="true" /> 
            <parkingAreaReroute id="5570538880" visible="true" /> 
        </interval>
    </rerouter>

    <rerouter id="6489283863" edges="54356028#1">
        <interval begin="0.0" end="86400">
             
            <parkingAreaReroute id="6489283863" visible="true" /> 
            <parkingAreaReroute id="3891079338" visible="true" /> 
            <parkingAreaReroute id="3891079340" visible="true" /> 
            <parkingAreaReroute id="316775573" visible="true" /> 
            <parkingAreaReroute id="4839983111" visible="true" /> 
            <parkingAreaReroute id="730863171" visible="true" /> 
            <parkingAreaReroute id="3695727291" visible="true" /> 
            <parkingAreaReroute id="3695729527" visible="true" /> 
        </interval>
    </rerouter>

    <rerouter id="6708081023" edges="-610157555">
        <interval begin="0.0" end="86400">
             
            <parkingAreaReroute id="6708081023" visible="true" /> 
            <parkingAreaReroute id="6708081024" visible="true" /> 
            <parkingAreaReroute id="9704458232" visible="true" /> 
            <parkingAreaReroute id="710755133" visible="true" /> 
            <parkingAreaReroute id="11372294147" visible="true" /> 
            <parkingAreaReroute id="697236821" visible="true" /> 
        </interval>
    </rerouter>

    <rerouter id="6708081024" edges="-610157555">
        <interval begin="0.0" end="86400">
             
            <parkingAreaReroute id="6708081024" visible="true" /> 
            <parkingAreaReroute id="9704458232" visible="true" /> 
            <parkingAreaReroute id="710755133" visible="true" /> 
            <parkingAreaReroute id="11372294147" visible="true" /> 
            <parkingAreaReroute id="697236821" visible="true" /> 
            <parkingAreaReroute id="11372294143" visible="true" /> 
            <parkingAreaReroute id="9959223958" visible="true" /> 
        </interval>
    </rerouter>

    <rerouter id="671847217" edges="23332581#1">
        <interval begin="0.0" end="86400">
             
            <parkingAreaReroute id="671847217" visible="true" /> 
            <parkingAreaReroute id="6293406945" visible="true" /> 
            <parkingAreaReroute id="6293406937" visible="true" /> 
            <parkingAreaReroute id="357916696" visible="true" /> 
            <parkingAreaReroute id="369680305" visible="true" /> 
            <parkingAreaReroute id="6866515426" visible="true" /> 
            <parkingAreaReroute id="2029936602" visible="true" /> 
            <parkingAreaReroute id="1435025176" visible="true" /> 
            <parkingAreaReroute id="679645527" visible="true" /> 
            <parkingAreaReroute id="6866515436" visible="true" /> 
            <parkingAreaReroute id="387186273" visible="true" /> 
        </interval>
    </rerouter>

    <rerouter id="671847233" edges="23332581#1">
        <interval begin="0.0" end="86400">
             
            <parkingAreaReroute id="671847233" visible="true" /> 
            <parkingAreaReroute id="6293406945" visible="true" /> 
            <parkingAreaReroute id="6293406937" visible="true" /> 
            <parkingAreaReroute id="357916696" visible="true" /> 
            <parkingAreaReroute id="369680305" visible="true" /> 
            <parkingAreaReroute id="6866515426" visible="true" /> 
            <parkingAreaReroute id="2029936602" visible="true" /> 
            <parkingAreaReroute id="1435025176" visible="true" /> 
            <parkingAreaReroute id="679645527" visible="true" /> 
            <parkingAreaReroute id="6866515436" visible="true" /> 
            <parkingAreaReroute id="387186273" visible="true" /> 
        </interval>
    </rerouter>

    <rerouter id="677365940" edges="1164901573">
        <interval begin="0.0" end="86400">
             
            <parkingAreaReroute id="677365940" visible="true" /> 
            <parkingAreaReroute id="2711712831" visible="true" /> 
            <parkingAreaReroute id="2634087847" visible="true" /> 
            <parkingAreaReroute id="2634087844" visible="true" /> 
        </interval>
    </rerouter>

    <rerouter id="679645527" edges="316253674">
        <interval begin="0.0" end="86400">
             
            <parkingAreaReroute id="679645527" visible="true" /> 
            <parkingAreaReroute id="11803573687" visible="true" /> 
            <parkingAreaReroute id="5006715813" visible="true" /> 
            <parkingAreaReroute id="6318127723" visible="true" /> 
            <parkingAreaReroute id="679645541" visible="true" /> 
            <parkingAreaReroute id="6293406945" visible="true" /> 
            <parkingAreaReroute id="6293406937" visible="true" /> 
            <parkingAreaReroute id="671847217" visible="true" /> 
            <parkingAreaReroute id="671847233" visible="true" /> 
            <parkingAreaReroute id="357972918" visible="true" /> 
            <parkingAreaReroute id="357916696" visible="true" /> 
        </interval>
    </rerouter>

    <rerouter id="679645541" edges="17242225">
        <interval begin="0.0" end="86400">
             
            <parkingAreaReroute id="679645541" visible="true" /> 
            <parkingAreaReroute id="6293406945" visible="true" /> 
            <parkingAreaReroute id="6293406937" visible="true" /> 
            <parkingAreaReroute id="671847217" visible="true" /> 
            <parkingAreaReroute id="671847233" visible="true" /> 
            <parkingAreaReroute id="357972918" visible="true" /> 