<?xml version="1.0" encoding="UTF-8"?>

<!-- generated on 2024-04-21 13:03:58.782544 by osmWebWizard.py UNKNOWN
<configuration>
    <allow-fringe.min-length value="1000.0"/>
    <fringe-factor value="5"/>
    <fringe-start-attributes value="departSpeed=&quot;max&quot;"/>
    <insertion-density value="12.0"/>
    <lanes value="True"/>
    <min-distance.fringe value="10.0"/>
    <min-distance value="300.0"/>
    <net-file value="/Users/yasser/2024-04-21-13-03-17/osm.net.xml.gz"/>
    <remove-loops value="True"/>
    <route-file value="/Users/yasser/2024-04-21-13-03-17/osm.passenger.rou.xml"/>
    <trip-attributes value="departLane=&quot;best&quot;"/>
    <output-trip-file value="/Users/yasser/2024-04-21-13-03-17/osm.passenger.trips.xml"/>
    <prefix value="veh"/>
    <validate value="True"/>
    <vehicle-class value="passenger"/>
    <via-edge-types value="highway.motorway,highway.motorway_link,highway.trunk_link,highway.primary_link,highway.secondary_link,highway.tertiary_link"/>
</configuration>
-->

<!-- generated on 2024-04-21 13:03:58 by Eclipse SUMO duarouter Version 1.18.0
<configuration xmlns:xsi="http://www.w3.org/2001/XMLSchema-instance" xsi:noNamespaceSchemaLocation="http://sumo.dlr.de/xsd/duarouterConfiguration.xsd">

    <input>
        <net-file value="/Users/yasser/2024-04-21-13-03-17/osm.net.xml.gz"/>
        <route-files value="/Users/yasser/2024-04-21-13-03-17/osm.passenger.trips.xml"/>
    </input>

    <output>
        <output-file value="/Users/yasser/2024-04-21-13-03-17/osm.passenger.trips.xml.tmp"/>
        <alternatives-output value="NUL"/>
        <write-trips value="true"/>
    </output>

    <processing>
        <remove-loops value="true"/>
    </processing>

    <time>
        <begin value="0.0"/>
        <end value="3600.0"/>
    </time>

    <report>
        <no-warnings value="true"/>
        <ignore-errors value="true"/>
        <no-step-log value="true"/>
    </report>

</configuration>
-->

<routes xmlns:xsi="http://www.w3.org/2001/XMLSchema-instance" xsi:noNamespaceSchemaLocation="http://sumo.dlr.de/xsd/routes_file.xsd">
    <vType id="veh_passenger" vClass="passenger"/>
    <trip id="veh0" type="veh_passenger" depart="0.00" departLane="best" from="286761872#0" to="-1272009307"/>
    <trip id="veh1" type="veh_passenger" depart="1.44" departLane="best" from="-53751544#5" to="-35772493#3"/>
    <trip id="veh2" type="veh_passenger" depart="2.87" departLane="best" from="37519803#0" to="31610729#0"/>
    <trip id="veh3" type="veh_passenger" depart="4.31" departLane="best" departSpeed="max" from="625169348" to="-23108058#9"/>
    <trip id="veh4" type="veh_passenger" depart="5.75" departLane="best" from="143725210#8" to="129762171#6"/>
    <trip id="veh5" type="veh_passenger" depart="7.18" departLane="best" from="331396249" to="23359713#4"/>
    <trip id="veh6" type="veh_passenger" depart="8.62" departLane="best" from="-1272538278#2" to="-31610728#23"/>
    <trip id="veh7" type="veh_passenger" depart="10.06" departLane="best" departSpeed="max" from="30016044#0" to="23897855#0"/>
    <trip id="veh9" type="veh_passenger" depart="12.93" departLane="best" from="-487118302#2" to="1118676626#2"/>
    <trip id="veh10" type="veh_passenger" depart="14.36" departLane="best" from="47372949#6" to="859025982"/>
    <trip id="veh11" type="veh_passenger" depart="15.80" departLane="best" from="1002042617#5" to="-26284191"/>
    <trip id="veh12" type="veh_passenger" depart="17.24" departLane="best" from="830802164" to="1002042617#5"/>
    <trip id="veh13" type="veh_passenger" depart="18.67" departLane="best" from="-554332069#1" to="26219609#1"/>
    <trip id="veh14" type="veh_passenger" depart="20.11" departLane="best" departSpeed="max" from="47378187#0" to="37262677#29"/>
    <trip id="veh15" type="veh_passenger" depart="21.55" departLane="best" from="23897718#1" to="880278093#2"/>
    <trip id="veh16" type="veh_passenger" depart="22.98" departLane="best" from="1170948706" to="-24250313#1"/>
    <trip id="veh17" type="veh_passenger" depart="24.42" departLane="best" from="58871871#0" to="25171322#2"/>
    <trip id="veh18" type="veh_passenger" depart="25.86" departLane="best" from="33804566#3" to="-143725210#5"/>
    <trip id="veh19" type="veh_passenger" depart="27.29" departLane="best" from="-35772495#6" to="-60213816#11"/>
    <trip id="veh20" type="veh_passenger" depart="28.73" departLane="best" from="-230415530#1" to="-37262792#1"/>
    <trip id="veh21" type="veh_passenger" depart="30.17" departLane="best" departSpeed="max" from="-23360193#1" to="-56541879#0"/>
    <trip id="veh22" type="veh_passenger" depart="31.60" departLane="best" from="28492701#1" to="1149340566#1"/>
    <trip id="veh23" type="veh_passenger" depart="33.04" departLane="best" from="1168981756" to="316256637#2"/>
    <trip id="veh24" type="veh_passenger" depart="34.47" departLane="best" departSpeed="max" from="-487118302#5" to="-72493059#1"/>
    <trip id="veh25" type="veh_passenger" depart="35.91" departLane="best" departSpeed="max" from="30016043#0" to="26437422#1"/>
    <trip id="veh26" type="veh_passenger" depart="37.35" departLane="best" from="-27464631#7" to="37262677#25"/>
    <trip id="veh27" type="veh_passenger" depart="38.78" departLane="best" from="26536910#1" to="1193894778#0"/>
    <trip id="veh28" type="veh_passenger" depart="40.22" departLane="best" from="93457073#1" to="286761863#1"/>
    <trip id="veh29" type="veh_passenger" depart="41.66" departLane="best" from="543048018#1" to="-4290142#0"/>
    <trip id="veh30" type="veh_passenger" depart="43.09" departLane="best" departSpeed="max" from="-37084647" to="-130659482#0"/>
    <trip id="veh31" type="veh_passenger" depart="44.53" departLane="best" from="-771368477#7" to="-53540055#2"/>
    <trip id="veh32" type="veh_passenger" depart="45.97" departLane="best" from="-316256635#0" to="-770074670#1"/>
    <trip id="veh33" type="veh_passenger" depart="47.40" departLane="best" from="-60213816#18" to="79510496#3"/>
    <trip id="veh34" type="veh_passenger" depart="48.84" departLane="best" from="30133975#7" to="1271540883"/>
    <trip id="veh35" type="veh_passenger" depart="50.28" departLane="best" from="629542242#2" to="220874570#0"/>
    <trip id="veh36" type="veh_passenger" depart="51.71" departLane="best" from="-487118302#2" to="41414188#0"/>
    <trip id="veh37" type="veh_passenger" depart="53.15" departLane="best" from="318129572#0" to="-5084494#1"/>
    <trip id="veh38" type="veh_passenger" depart="54.59" departLane="best" from="25609926#6" to="629487712"/>
    <trip id="veh39" type="veh_passenger" depart="56.02" departLane="best" from="1272013854" to="-34519301#0"/>
    <trip id="veh40" type="veh_passenger" depart="57.46" departLane="best" from="96191873#1" to="23359947#2"/>
    <trip id="veh41" type="veh_passenger" depart="58.89" departLane="best" from="-23359655#0" to="-143725210#9"/>
    <trip id="veh42" type="veh_passenger" depart="60.33" departLane="best" departSpeed="max" from="-23564661" to="27774100#3"/>
    <trip id="veh43" type="veh_passenger" depart="61.77" departLane="best" from="44499515#2" to="15020166#3"/>
    <trip id="veh44" type="veh_passenger" depart="63.20" departLane="best" from="22736006#1" to="1202083398"/>
    <trip id="veh45" type="veh_passenger" depart="64.64" departLane="best" from="953023602" to="23652015#0"/>
    <trip id="veh46" type="veh_passenger" depart="66.08" departLane="best" from="880278106#0" to="58871871#2"/>
    <trip id="veh47" type="veh_passenger" depart="67.51" departLane="best" from="-115728080#7" to="-35772493#7"/>
    <trip id="veh48" type="veh_passenger" depart="68.95" departLane="best" from="316256629#3" to="30830669#2"/>
    <trip id="veh49" type="veh_passenger" depart="70.39" departLane="best" departSpeed="max" from="-487118302#5" to="286761864#1"/>
    <trip id="veh50" type="veh_passenger" depart="71.82" departLane="best" from="23652054#1" to="165898777#1"/>
    <trip id="veh51" type="veh_passenger" depart="73.26" departLane="best" from="187766389#0" to="-819313997#3"/>
    <trip id="veh52" type="veh_passenger" depart="74.70" departLane="best" from="60213816#17" to="-5084495#0"/>
    <trip id="veh53" type="veh_passenger" depart="76.13" departLane="best" from="23108058#15" to="-28492646#1"/>
    <trip id="veh54" type="veh_passenger" depart="77.57" departLane="best" from="629542220#1" to="44499516#2"/>
    <trip id="veh55" type="veh_passenger" depart="79.00" departLane="best" from="-629487707" to="-28492646#9"/>
    <trip id="veh56" type="veh_passenger" depart="80.44" departLane="best" from="-26537032" to="25991959#2"/>
    <trip id="veh57" type="veh_passenger" depart="81.88" departLane="best" from="543048018#1" to="23897655#10"/>
    <trip id="veh58" type="veh_passenger" depart="83.31" departLane="best" from="42921210#0" to="23652069#2"/>
    <trip id="veh59" type="veh_passenger" depart="84.75" departLane="best" from="-1003159244#2" to="-946101316#0"/>
    <trip id="veh60" type="veh_passenger" depart="86.19" departLane="best" from="-1268725071#1" to="654289744#1"/>
    <trip id="veh61" type="veh_passenger" depart="87.62" departLane="best" from="-610157555#1" to="54225055#0"/>
    <trip id="veh62" type="veh_passenger" depart="89.06" departLane="best" from="72493046#0" to="-173567743"/>
    <trip id="veh63" type="veh_passenger" depart="90.50" departLane="best" from="60213816#8" to="771391054#0"/>
    <trip id="veh64" type="veh_passenger" depart="91.93" departLane="best" from="-23108058#2" to="23029391#2"/>
    <trip id="veh66" type="veh_passenger" depart="94.81" departLane="best" from="41453494#3" to="-25049058#0"/>
    <trip id="veh67" type="veh_passenger" depart="96.24" departLane="best" from="22736007#5" to="24250309#0"/>
    <trip id="veh68" type="veh_passenger" depart="97.68" departLane="best" from="-487118302#2" to="-60213816#16"/>
    <trip id="veh69" type="veh_passenger" depart="99.11" departLane="best" from="-146497004#2" to="32903764#0"/>
    <trip id="veh70" type="veh_passenger" depart="100.55" departLane="best" from="23897855#1" to="37262677#31"/>
    <trip id="veh71" type="veh_passenger" depart="101.99" departLane="best" from="-31610728#22" to="-771368477#15"/>
    <trip id="veh72" type="veh_passenger" depart="103.42" departLane="best" from="946101318#1" to="29053480#2"/>
    <trip id="veh73" type="veh_passenger" depart="104.86" departLane="best" from="1231169194#0" to="23361459#1"/>
    <trip id="veh74" type="veh_passenger" depart="106.30" departLane="best" from="-23897778#6" to="35772495#3"/>
    <trip id="veh75" type="veh_passenger" depart="107.73" departLane="best" from="1002042615#2" to="25606923#1"/>
    <trip id="veh76" type="veh_passenger" depart="109.17" departLane="best" from="-37262677#14" to="34555812#1"/>
    <trip id="veh77" type="veh_passenger" depart="110.61" departLane="best" from="-22973895#22" to="27774529#5"/>
    <trip id="veh78" type="veh_passenger" depart="112.04" departLane="best" departSpeed="max" from="-37084647" to="629542216#1"/>
    <trip id="veh79" type="veh_passenger" depart="113.48" departLane="best" from="586374183#0" to="-22736007#5"/>
    <trip id="veh80" type="veh_passenger" depart="114.92" departLane="best" departSpeed="max" from="-383673950#3" to="31610728#17"/>
    <trip id="veh81" type="veh_passenger" depart="116.35" departLane="best" from="-318210192" to="-25204785#0"/>
    <trip id="veh82" type="veh_passenger" depart="117.79" departLane="best" from="66682746#1" to="25049386#3"/>
    <trip id="veh83" type="veh_passenger" depart="119.23" departLane="best" from="22736006#0" to="429356223#1"/>
    <trip id="veh84" type="veh_passenger" depart="120.66" departLane="best" departSpeed="max" from="47378187#0" to="30134026#6"/>
    <trip id="veh85" type="veh_passenger" depart="122.10" departLane="best" departSpeed="max" from="-23359947#5" to="153963756#4"/>
    <trip id="veh87" type="veh_passenger" depart="124.97" departLane="best" from="-37262677#25" to="31610728#32"/>
    <trip id="veh88" type="veh_passenger" depart="126.41" departLane="best" from="90018567#6" to="23360056#1"/>
    <trip id="veh89" type="veh_passenger" depart="127.84" departLane="best" from="-129762171#3" to="1051477126#1"/>
    <trip id="veh90" type="veh_passenger" depart="129.28" departLane="best" from="-58871871#0" to="4236576#1"/>
    <trip id="veh91" type="veh_passenger" depart="130.72" departLane="best" from="30016044#5" to="187766386#1"/>
    <trip id="veh92" type="veh_passenger" depart="132.15" departLane="best" from="143725210#7" to="-56541879#1"/>
    <trip id="veh93" type="veh_passenger" depart="133.59" departLane="best" departSpeed="max" from="-41414189" to="629542457#2"/>
    <trip id="veh94" type="veh_passenger" depart="135.03" departLane="best" from="17344044#2" to="58871872#0"/>
    <trip id="veh95" type="veh_passenger" depart="136.46" departLane="best" from="24935548#1" to="-153955571#1"/>
    <trip id="veh96" type="veh_passenger" depart="137.90" departLane="best" from="-970313522#3" to="542662640#2"/>
    <trip id="veh97" type="veh_passenger" depart="139.34" departLane="best" from="880278103#1" to="653939080#2"/>
    <trip id="veh98" type="veh_passenger" depart="140.77" departLane="best" from="55482885#1" to="-27770978#0"/>
    <trip id="veh99" type="veh_passenger" depart="142.21" departLane="best" from="22973895#7" to="-33804566#3"/>
    <trip id="veh100" type="veh_passenger" depart="143.64" departLane="best" from="1274152442#5" to="17407088#0"/>
    <trip id="veh101" type="veh_passenger" depart="145.08" departLane="best" from="1179914083#0" to="90042841#9"/>
    <trip id="veh102" type="veh_passenger" depart="146.52" departLane="best" from="-487118302#3" to="429356223#0"/>
    <trip id="veh103" type="veh_passenger" depart="147.95" departLane="best" from="19543195" to="15020166#5"/>
    <trip id="veh104" type="veh_passenger" depart="149.39" departLane="best" from="830802165" to="946101318#4"/>
    <trip id="veh105" type="veh_passenger" depart="150.83" departLane="best" from="24960028#5" to="-34768931#2"/>
    <trip id="veh106" type="veh_passenger" depart="152.26" departLane="best" from="-25991776#1" to="-629487714#2"/>
    <trip id="veh107" type="veh_passenger" depart="153.70" departLane="best" from="880278103#0" to="25171322#9"/>
    <trip id="veh108" type="veh_passenger" depart="155.14" departLane="best" from="23897989#2" to="41178891#1"/>
    <trip id="veh109" type="veh_passenger" depart="156.57" departLane="best" from="-17983654#6" to="25424999#1"/>
    <trip id="veh110" type="veh_passenger" depart="158.01" departLane="best" from="232940458#2" to="-56541879#2"/>
    <trip id="veh111" type="veh_passenger" depart="159.45" departLane="best" from="-25997550#0" to="8361800#1"/>
    <trip id="veh112" type="veh_passenger" depart="160.88" departLane="best" from="-230415530#1" to="-30016044#1"/>
    <trip id="veh113" type="veh_passenger" depart="162.32" departLane="best" from="25991776#2" to="31610728#5"/>
    <trip id="veh114" type="veh_passenger" depart="163.76" departLane="best" from="37717839#2" to="-24874189#2"/>
    <trip id="veh115" type="veh_passenger" depart="165.19" departLane="best" departSpeed="max" from="625169348" to="-41215071#5"/>
    <trip id="veh116" type="veh_passenger" depart="166.63" departLane="best" from="25991776#1" to="-27464631#2"/>
    <trip id="veh117" type="veh_passenger" depart="168.06" departLane="best" from="143725210#12" to="-1271885304"/>
    <trip id="veh118" type="veh_passenger" depart="169.50" departLane="best" from="23567954#0" to="72493018#0"/>
    <trip id="veh119" type="veh_passenger" depart="170.94" departLane="best" from="-31610728#33" to="34555812#4"/>
    <trip id="veh120" type="veh_passenger" depart="172.37" departLane="best" from="397118977#1" to="1271540883"/>
    <trip id="veh121" type="veh_passenger" depart="173.81" departLane="best" from="31610728#30" to="629487719#8"/>
    <trip id="veh122" type="veh_passenger" depart="175.25" departLane="best" from="771391054#1" to="41215071#1"/>
    <trip id="veh123" type="veh_passenger" depart="176.68" departLane="best" from="-23027756#1" to="220520559#3"/>
    <trip id="veh124" type="veh_passenger" depart="178.12" departLane="best" from="970313521#1" to="-953023602"/>
    <trip id="veh125" type="veh_passenger" depart="179.56" departLane="best" from="-23027887#1" to="-33804566#0"/>
    <trip id="veh126" type="veh_passenger" depart="180.99" departLane="best" from="-487118302#3" to="671575656#0"/>
    <trip id="veh127" type="veh_passenger" depart="182.43" departLane="best" from="621781808" to="621781833#1"/>
    <trip id="veh128" type="veh_passenger" depart="183.87" departLane="best" from="1164901573#1" to="-26381926#4"/>
    <trip id="veh129" type="veh_passenger" depart="185.30" departLane="best" from="542662638#0" to="32903764#1"/>
    <trip id="veh130" type="veh_passenger" depart="186.74" departLane="best" from="27359750#0" to="904155539"/>
    <trip id="veh131" type="veh_passenger" depart="188.17" departLane="best" from="30133975#11" to="1118676627"/>
    <trip id="veh132" type="veh_passenger" depart="189.61" departLane="best" from="53137990#2" to="629487719#4"/>
    <trip id="veh133" type="veh_passenger" depart="191.05" departLane="best" from="53162563#0" to="72493099#0"/>
    <trip id="veh134" type="veh_passenger" depart="192.48" departLane="best" from="-24974143#1" to="-24212729#2"/>
    <trip id="veh135" type="veh_passenger" depart="193.92" departLane="best" from="-53357503" to="26219674#0"/>
    <trip id="veh136" type="veh_passenger" depart="195.36" departLane="best" from="35004481#1" to="-31610728#6"/>
    <trip id="veh137" type="veh_passenger" depart="196.79" departLane="best" from="28492646#1" to="-5084495#4"/>
    <trip id="veh138" type="veh_passenger" depart="198.23" departLane="best" from="23027975#0" to="629542216#1"/>
    <trip id="veh139" type="veh_passenger" depart="199.67" departLane="best" departSpeed="max" from="55007036#0" to="-23353580#3"/>
    <trip id="veh141" type="veh_passenger" depart="202.54" departLane="best" from="-107073709#2" to="-4236577#2"/>
    <trip id="veh142" type="veh_passenger" depart="203.98" departLane="best" from="286761863#3" to="-490735066#1"/>
    <trip id="veh143" type="veh_passenger" depart="205.41" departLane="best" from="378887012#0" to="-24250313#0"/>
    <trip id="veh144" type="veh_passenger" depart="206.85" departLane="best" from="152358483#2" to="-1149340567"/>
    <trip id="veh145" type="veh_passenger" depart="208.29" departLane="best" from="23027975#2" to="621781842#1"/>
    <trip id="veh146" type="veh_passenger" depart="209.72" departLane="best" from="629487714#1" to="23897855#2"/>
    <trip id="veh147" type="veh_passenger" depart="211.16" departLane="best" from="25609926#5" to="-24978752#2"/>
    <trip id="veh148" type="veh_passenger" depart="212.59" departLane="best" from="72493059#0" to="-629487714#2"/>
    <trip id="veh149" type="veh_passenger" depart="214.03" departLane="best" from="44847058#1" to="58871871#2"/>
    <trip id="veh150" type="veh_passenger" depart="215.47" departLane="best" from="629487683#1" to="-316256637#4"/>
    <trip id="veh151" type="veh_passenger" depart="216.90" departLane="best" departSpeed="max" from="-41414189" to="-23564566#1"/>
    <trip id="veh152" type="veh_passenger" depart="218.34" departLane="best" from="-42922001#14" to="621781842#4"/>
    <trip id="veh153" type="veh_passenger" depart="219.78" departLane="best" from="130659482#1" to="-27464631#6"/>
    <trip id="veh154" type="veh_passenger" depart="221.21" departLane="best" from="-25718555#8" to="65543618#0"/>
    <trip id="veh155" type="veh_passenger" depart="222.65" departLane="best" from="58873631" to="880278114#1"/>
    <trip id="veh157" type="veh_passenger" depart="225.52" departLane="best" from="1272009406" to="37519804#2"/>
    <trip id="veh158" type="veh_passenger" depart="226.96" departLane="best" from="-952327190#0" to="661020512"/>
    <trip id="veh160" type="veh_passenger" depart="229.83" departLane="best" from="490735065#0" to="-53353063#2"/>
    <trip id="veh161" type="veh_passenger" depart="231.27" departLane="best" from="444628289#1" to="-23652105#4"/>
    <trip id="veh162" type="veh_passenger" depart="232.70" departLane="best" from="59009855#0" to="586374183#3"/>
    <trip id="veh163" type="veh_passenger" depart="234.14" departLane="best" from="-34555812#3" to="53137990#2"/>
    <trip id="veh164" type="veh_passenger" depart="235.58" departLane="best" from="206310941#2" to="-72493064#0"/>
    <trip id="veh165" type="veh_passenger" depart="237.01" departLane="best" from="445493001#6" to="37262677#10"/>
    <trip id="veh166" type="veh_passenger" depart="238.45" departLane="best" from="-1271885304" to="-314546034#1"/>
    <trip id="veh167" type="veh_passenger" depart="239.89" departLane="best" from="946101316#12" to="58880117#0"/>
    <trip id="veh168" type="veh_passenger" depart="241.32" departLane="best" from="880278100#0" to="-56541879#3"/>
    <trip id="veh169" type="veh_passenger" depart="242.76" departLane="best" from="286763156#1" to="1272538278#2"/>
    <trip id="veh170" type="veh_passenger" depart="244.20" departLane="best" from="880930241" to="23652273#2"/>
    <trip id="veh171" type="veh_passenger" depart="245.63" departLane="best" from="880278106#2" to="-28492646#1"/>
    <trip id="veh172" type="veh_passenger" depart="247.07" departLane="best" from="-8361800#1" to="-53162565"/>
    <trip id="veh173" type="veh_passenger" depart="248.51" departLane="best" departSpeed="max" from="-23564660#6" to="165898777#0"/>
    <trip id="veh174" type="veh_passenger" depart="249.94" departLane="best" from="-37262677#20" to="-771391054#2"/>
    <trip id="veh175" type="veh_passenger" depart="251.38" departLane="best" from="26437422#0" to="23359947#5"/>
    <trip id="veh176" type="veh_passenger" depart="252.82" departLane="best" from="1219565791#1" to="25171322#12"/>
    <trip id="veh177" type="veh_passenger" depart="254.25" departLane="best" from="4290142#1" to="34239931"/>
    <trip id="veh178" type="veh_passenger" depart="255.69" departLane="best" from="-1056795857" to="650780418#5"/>
    <trip id="veh179" type="veh_passenger" depart="257.12" departLane="best" from="-23897778#6" to="35772492#1"/>
    <trip id="veh180" type="veh_passenger" depart="258.56" departLane="best" from="38237485#2" to="31610728#23"/>
    <trip id="veh181" type="veh_passenger" depart="260.00" departLane="best" from="1149340566#5" to="-22736007#3"/>
    <trip id="veh182" type="veh_passenger" depart="261.43" departLane="best" from="314700816" to="-970313521#0"/>
    <trip id="veh183" type="veh_passenger" depart="262.87" departLane="best" from="-771368477#1" to="-55482885#1"/>
    <trip id="veh184" type="veh_passenger" depart="264.31" departLane="best" from="35772494#1" to="-629487721"/>
    <trip id="veh185" type="veh_passenger" depart="265.74" departLane="best" from="-72493064#1" to="130852940#3"/>
    <trip id="veh186" type="veh_passenger" depart="267.18" departLane="best" from="-129762171#2" to="-629487709#0"/>
    <trip id="veh188" type="veh_passenger" depart="270.05" departLane="best" from="72493059#0" to="316253674#0"/>
    <trip id="veh189" type="veh_passenger" depart="271.49" departLane="best" from="629487712" to="27359750#2"/>
    <trip id="veh190" type="veh_passenger" depart="272.93" departLane="best" from="629487715#0" to="23897989#1"/>
    <trip id="veh191" type="veh_passenger" depart="274.36" departLane="best" from="-1003159244#2" to="-60213816#0"/>
    <trip id="veh192" type="veh_passenger" depart="275.80" departLane="best" from="153950038#4" to="25191475#2"/>
    <trip id="veh193" type="veh_passenger" depart="277.23" departLane="best" from="30133975#3" to="22735987#2"/>
    <trip id="veh194" type="veh_passenger" depart="278.67" departLane="best" from="17343461" to="-33804566#2"/>
    <trip id="veh195" type="veh_passenger" depart="280.11" departLane="best" from="-22736006#1" to="629487719#3"/>
    <trip id="veh196" type="veh_passenger" depart="281.54" departLane="best" from="44847058#1" to="-27774529#2"/>
    <trip id="veh197" type="veh_passenger" depart="282.98" departLane="best" from="-23108058#12" to="23361405#2"/>
    <trip id="veh198" type="veh_passenger" depart="284.42" departLane="best" departSpeed="max" from="28492646#0" to="1002042617#1"/>
    <trip id="veh199" type="veh_passenger" depart="285.85" departLane="best" from="53137991#4" to="41211487#7"/>
    <trip id="veh200" type="veh_passenger" depart="287.29" departLane="best" from="31610728#33" to="-35772495#2"/>
    <trip id="veh201" type="veh_passenger" depart="288.73" departLane="best" from="-31610728#14" to="1271541378#1"/>
    <trip id="veh203" type="veh_passenger" depart="291.60" departLane="best" from="55504012" to="22912129"/>
    <trip id="veh204" type="veh_passenger" depart="293.04" departLane="best" from="-141248951#7" to="27774529#1"/>
    <trip id="veh205" type="veh_passenger" depart="294.47" departLane="best" from="-31262104#1" to="318210203#1"/>
    <trip id="veh207" type="veh_passenger" depart="297.34" departLane="best" from="1170889231" to="-1108603980"/>
    <trip id="veh208" type="veh_passenger" depart="298.78" departLane="best" from="40928956#2" to="4236576#2"/>
    <trip id="veh209" type="veh_passenger" depart="300.22" departLane="best" from="-23564660#4" to="153950038#1"/>
    <trip id="veh210" type="veh_passenger" depart="301.65" departLane="best" from="-27774529#0" to="8325111#2"/>
    <trip id="veh211" type="veh_passenger" depart="303.09" departLane="best" from="23368384#7" to="-152358482"/>
    <trip id="veh212" type="veh_passenger" depart="304.53" departLane="best" departSpeed="max" from="-41414189" to="55482894#3"/>
    <trip id="veh213" type="veh_passenger" depart="305.96" departLane="best" departSpeed="max" from="203890380#0" to="46848294#4"/>
    <trip id="veh214" type="veh_passenger" depart="307.40" departLane="best" from="31610728#16" to="904155539"/>
    <trip id="veh215" type="veh_passenger" depart="308.84" departLane="best" from="-25991823#1" to="802140553#0"/>
    <trip id="veh216" type="veh_passenger" depart="310.27" departLane="best" departSpeed="max" from="625169348" to="27296249#1"/>
    <trip id="veh217" type="veh_passenger" depart="311.71" departLane="best" from="35772494#0" to="-23359683#2"/>
    <trip id="veh218" type="veh_passenger" depart="313.15" departLane="best" from="54225055#0" to="23897989#1"/>
    <trip id="veh219" type="veh_passenger" depart="314.58" departLane="best" from="62645713" to="39300892#0"/>
    <trip id="veh220" type="veh_passenger" depart="316.02" departLane="best" from="-22736007#4" to="-487118302#0"/>
    <trip id="veh221" type="veh_passenger" depart="317.46" departLane="best" from="41215071#5" to="-28492646#1"/>
    <trip id="veh222" type="veh_passenger" depart="318.89" departLane="best" from="30134025#0" to="23564566#0"/>
    <trip id="veh223" type="veh_passenger" depart="320.33" departLane="best" from="27774529#5" to="-55482885#0"/>
    <trip id="veh224" type="veh_passenger" depart="321.76" departLane="best" from="-23029041#3" to="58877115"/>
    <trip id="veh225" type="veh_passenger" depart="323.20" departLane="best" from="53162565" to="-880278071#1"/>
    <trip id="veh226" type="veh_passenger" depart="324.64" departLane="best" from="23897892#1" to="-25568017#1"/>
    <trip id="veh227" type="veh_passenger" depart="326.07" departLane="best" from="-37262677#24" to="318210196#0"/>
    <trip id="veh228" type="veh_passenger" depart="327.51" departLane="best" from="34287321" to="-19543195"/>
    <trip id="veh229" type="veh_passenger" depart="328.95" departLane="best" from="130659485#4" to="23897730#4"/>
    <trip id="veh230" type="veh_passenger" depart="330.38" departLane="best" from="-141250551" to="-316256633#2"/>
    <trip id="veh231" type="veh_passenger" depart="331.82" departLane="best" from="143725210#2" to="629542220#0"/>
    <trip id="veh232" type="veh_passenger" depart="333.26" departLane="best" from="25609926#4" to="318210201#0"/>
    <trip id="veh233" type="veh_passenger" depart="334.69" departLane="best" from="57686135#0" to="41453495#4"/>
    <trip id="veh234" type="veh_passenger" depart="336.13" departLane="best" from="1183303174#3" to="1111162056"/>
    <trip id="veh235" type="veh_passenger" depart="337.57" departLane="best" from="1084121778#0" to="41215071#6"/>
    <trip id="veh236" type="veh_passenger" depart="339.00" departLane="best" departSpeed="max" from="56541879#0" to="809271490"/>
    <trip id="veh237" type="veh_passenger" depart="340.44" departLane="best" from="143725210#12" to="-40928956#1"/>
    <trip id="veh238" type="veh_passenger" depart="341.87" departLane="best" from="24250313#1" to="26219609#0"/>
    <trip id="veh240" type="veh_passenger" depart="344.75" departLane="best" from="153963756#7" to="129762171#1"/>
    <trip id="veh241" type="veh_passenger" depart="346.18" departLane="best" from="-997599707" to="38237485#0"/>
    <trip id="veh242" type="veh_passenger" depart="347.62" departLane="best" from="130095724#3" to="-27464631#7"/>
    <trip id="veh243" type="veh_passenger" depart="349.06" departLane="best" from="220874571#1" to="-25046286#0"/>
    <trip id="veh244" type="veh_passenger" depart="350.49" departLane="best" from="27774093#5" to="1272538174#5"/>
    <trip id="veh245" type="veh_passenger" depart="351.93" departLane="best" from="-1274152442#2" to="286761872#0"/>
    <trip id="veh246" type="veh_passenger" depart="353.37" departLane="best" from="-24978752#0" to="220914848#1"/>
    <trip id="veh247" type="veh_passenger" depart="354.80" departLane="best" from="-153963756#4" to="1193885191#2"/>
    <trip id="veh248" type="veh_passenger" depart="356.24" departLane="best" from="316256636#1" to="-946101316#6"/>
    <trip id="veh249" type="veh_passenger" depart="357.68" departLane="best" from="41222346#4" to="1193885191#2"/>
    <trip id="veh250" type="veh_passenger" depart="359.11" departLane="best" from="41211484#1" to="54225055#1"/>